sad/pglib_opf_case3120sp_mp__sad.m
%%%%%%%%%%%%%%%%%%%%%%%%%%%%%%%%%%%%%%%%%%%%%%%%%%%%%%%%%%%%%%%%%%%%%%%%%%%
%%%%                                                                  %%%%%
%%%%    IEEE PES Power Grid Library - Optimal Power Flow - v17.07     %%%%%
%%%%          (https://github.com/power-grid-lib/pglib-opf)           %%%%%
%%%%             Benchmark Group - Small Angle Difference             %%%%%
%%%%                         27 - June - 2017                         %%%%%
%%%%                                                                  %%%%%
%%%%%%%%%%%%%%%%%%%%%%%%%%%%%%%%%%%%%%%%%%%%%%%%%%%%%%%%%%%%%%%%%%%%%%%%%%%
function mpc = pglib_opf_case3120sp_mp__sad
mpc.version = '2';
mpc.baseMVA = 100.0;

%% area data
%	area	refbus
mpc.areas = [
	1	 1;
];

%% bus data
%	bus_i	type	Pd	Qd	Gs	Bs	area	Vm	Va	baseKV	zone	Vmax	Vmin
mpc.bus = [
	1	 1	 0.0	 0.0	 0.0	 0.0	 1	    1.10637	   -0.99774	 220.0	 1	    1.11000	    0.95000;
	2	 1	 0.0	 0.0	 0.0	 0.0	 1	    1.10696	    0.58034	 220.0	 1	    1.11000	    0.95000;
	3	 1	 0.0	 0.0	 0.0	 0.0	 1	    1.07701	  -15.07790	 220.0	 1	    1.11000	    0.95000;
	4	 1	 0.0	 0.0	 0.0	 0.0	 1	    1.07698	  -15.08667	 220.0	 1	    1.11000	    0.95000;
	5	 1	 0.0	 0.0	 0.0	 0.0	 1	    1.11000	  -17.50303	 220.0	 1	    1.11000	    0.95000;
	6	 1	 0.0	 0.0	 0.0	 0.0	 1	    1.08620	   -4.12157	 220.0	 1	    1.11000	    0.95000;
	7	 1	 0.0	 0.0	 0.0	 0.0	 1	    1.08620	   -4.12251	 220.0	 1	    1.11000	    0.95000;
	8	 1	 0.0	 0.0	 0.0	 0.0	 1	    1.09477	   -8.77571	 220.0	 1	    1.11000	    0.95000;
	9	 1	 0.0	 0.0	 0.0	 0.0	 1	    1.09497	   -8.76006	 220.0	 1	    1.11000	    0.95000;
	10	 1	 0.0	 0.0	 0.0	 0.0	 1	    1.11000	  -12.45505	 220.0	 1	    1.11000	    0.95000;
	11	 1	 0.0	 0.0	 0.0	 0.0	 1	    1.03727	   -5.89260	 400.0	 1	    1.05000	    0.95000;
	12	 1	 0.0	 0.0	 0.0	 0.0	 1	    1.03733	   -5.88254	 400.0	 1	    1.05000	    0.95000;
	13	 1	 0.0	 0.0	 0.0	 0.0	 1	    1.01423	   -9.48315	 400.0	 1	    1.05000	    0.95000;
	14	 1	 0.0	 0.0	 0.0	 0.0	 1	    1.04857	   -9.72251	 220.0	 1	    1.11000	    0.95000;
	15	 1	 0.0	 0.0	 0.0	 0.0	 1	    1.04842	   -9.72968	 220.0	 1	    1.11000	    0.95000;
	16	 1	 0.0	 0.0	 0.0	 0.0	 1	    1.01686	  -13.53027	 220.0	 1	    1.11000	    0.95000;
	17	 1	 0.0	 0.0	 0.0	 0.0	 1	    1.02349	  -13.61929	 220.0	 1	    1.11000	    0.95000;
	18	 1	 0.0	 0.0	 0.0	 0.0	 1	    1.04067	   -5.63646	 400.0	 1	    1.05000	    0.95000;
	19	 1	 0.0	 0.0	 0.0	 0.0	 1	    1.04071	   -5.62935	 400.0	 1	    1.05000	    0.95000;
	20	 1	 0.0	 0.0	 0.0	 0.0	 1	    1.02422	  -12.71749	 400.0	 1	    1.05000	    0.95000;
	21	 1	 0.0	 0.0	 0.0	 0.0	 1	    1.03066	   -9.28743	 400.0	 1	    1.05000	    0.95000;
	22	 2	 10.0	 20.0	 0.0	 0.0	 1	    1.06652	   -9.00140	 220.0	 1	    1.11000	    0.95000;
	23	 2	 10.0	 20.0	 0.0	 0.0	 1	    1.06657	   -8.99830	 220.0	 1	    1.11000	    0.95000;
	24	 1	 0.0	 0.0	 0.0	 0.0	 1	    1.09140	   -3.45227	 220.0	 1	    1.11000	    0.95000;
	25	 1	 0.0	 0.0	 0.0	 0.0	 1	    1.09149	   -3.45690	 220.0	 1	    1.11000	    0.95000;
	26	 1	 0.0	 0.0	 0.0	 0.0	 1	    1.05509	  -10.76473	 220.0	 1	    1.11000	    0.95000;
	27	 1	 0.0	 0.0	 0.0	 0.0	 1	    1.05507	  -10.76173	 220.0	 1	    1.11000	    0.95000;
	28	 1	 0.0	 0.0	 0.0	 0.0	 1	    1.04958	   -9.17006	 220.0	 1	    1.11000	    0.95000;
	29	 1	 0.0	 0.0	 0.0	 0.0	 1	    1.04953	   -9.18275	 220.0	 1	    1.11000	    0.95000;
	30	 1	 0.0	 0.0	 0.0	 0.0	 1	    1.09310	   -2.01858	 220.0	 1	    1.11000	    0.95000;
	31	 1	 0.0	 0.0	 0.0	 0.0	 1	    1.09302	   -2.03495	 220.0	 1	    1.11000	    0.95000;
	32	 1	 0.0	 0.0	 0.0	 0.0	 1	    1.04399	   -8.11315	 400.0	 1	    1.05000	    0.95000;
	33	 1	 0.0	 0.0	 0.0	 0.0	 1	    1.04397	   -8.11624	 400.0	 1	    1.05000	    0.95000;
	34	 1	 0.0	 0.0	 0.0	 0.0	 1	    1.03679	  -10.07104	 400.0	 1	    1.05000	    0.95000;
	35	 2	 32.16	 52.07	 0.0	 0.0	 1	    1.11000	   -0.86701	 220.0	 1	    1.11000	    0.95000;
	36	 2	 46.36	 92.07	 0.0	 0.0	 1	    1.11000	    0.76071	 220.0	 1	    1.11000	    0.95000;
	37	 3	 60.0	 120.0	 0.0	 0.0	 1	    1.05000	   -0.00000	 400.0	 1	    1.05000	    0.95000;
	38	 2	 60.0	 120.0	 0.0	 0.0	 1	    1.05000	    0.00337	 400.0	 1	    1.05000	    0.95000;
	39	 1	 0.0	 0.0	 0.0	 0.0	 1	    1.04603	  -10.70160	 220.0	 1	    1.11000	    0.95000;
	40	 1	 0.0	 0.0	 0.0	 0.0	 1	    1.04594	  -10.70629	 220.0	 1	    1.11000	    0.95000;
	41	 1	 0.0	 0.0	 0.0	 0.0	 1	    1.04626	   -2.65782	 400.0	 1	    1.05000	    0.95000;
	42	 1	 0.0	 0.0	 0.0	 0.0	 1	    1.04625	   -2.66051	 400.0	 1	    1.05000	    0.95000;
	43	 1	 0.0	 0.0	 0.0	 0.0	 1	    1.04396	  -10.01476	 220.0	 1	    1.11000	    0.95000;
	44	 1	 0.0	 0.0	 0.0	 0.0	 1	    1.03076	   -9.28791	 400.0	 1	    1.05000	    0.95000;
	45	 1	 0.0	 0.0	 0.0	 0.0	 1	    1.07835	   -5.13845	 220.0	 1	    1.11000	    0.95000;
	46	 1	 0.0	 0.0	 0.0	 0.0	 1	    1.07843	   -5.14017	 220.0	 1	    1.11000	    0.95000;
	47	 1	 0.0	 0.0	 0.0	 0.0	 1	    1.08082	   -4.58994	 220.0	 2	    1.11000	    0.95000;
	48	 1	 0.0	 0.0	 0.0	 0.0	 1	    1.07025	   -5.03596	 220.0	 2	    1.11000	    0.95000;
	49	 1	 0.0	 0.0	 0.0	 0.0	 1	    1.08282	   -3.66122	 220.0	 2	    1.11000	    0.95000;
	50	 1	 0.0	 0.0	 0.0	 0.0	 1	    1.08279	   -3.66572	 220.0	 2	    1.11000	    0.95000;
	51	 1	 0.0	 0.0	 0.0	 0.0	 1	    1.05891	   -5.45836	 220.0	 2	    1.11000	    0.95000;
	52	 1	 3.97	 1.0	 0.0	 0.0	 1	    1.09004	   -4.78131	 220.0	 2	    1.11000	    0.95000;
	53	 1	 0.0	 0.0	 0.0	 0.0	 1	    1.09008	   -4.77987	 220.0	 2	    1.11000	    0.95000;
	54	 1	 0.0	 0.0	 0.0	 0.0	 1	    1.02451	   -3.94160	 400.0	 2	    1.05000	    0.95000;
	55	 2	 13.0	 30.0	 0.0	 0.0	 1	    1.09988	   -2.21189	 220.0	 2	    1.11000	    0.95000;
	56	 2	 39.35	 90.07	 0.0	 0.0	 1	    1.09988	   -2.23039	 220.0	 2	    1.11000	    0.95000;
	57	 2	 26.0	 60.0	 0.0	 0.0	 1	    1.09998	   -2.18764	 220.0	 2	    1.11000	    0.95000;
	58	 2	 26.0	 50.0	 0.0	 0.0	 1	    1.05000	   -1.04570	 400.0	 2	    1.05000	    0.95000;
	59	 2	 26.0	 50.0	 0.0	 0.0	 1	    1.05000	   -1.03659	 400.0	 2	    1.05000	    0.95000;
	60	 1	 0.0	 0.0	 0.0	 0.0	 1	    1.08455	   -5.32957	 220.0	 2	    1.11000	    0.95000;
	61	 1	 0.0	 0.0	 0.0	 0.0	 1	    1.03156	   -3.44921	 400.0	 2	    1.05000	    0.95000;
	62	 1	 0.0	 0.0	 0.0	 0.0	 1	    1.03155	   -3.45034	 400.0	 2	    1.05000	    0.95000;
	63	 1	 0.0	 0.0	 0.0	 0.0	 1	    1.04491	   -2.51838	 400.0	 2	    1.05000	    0.95000;
	64	 1	 0.0	 0.0	 0.0	 0.0	 1	    1.06996	   -3.95846	 220.0	 2	    1.11000	    0.95000;
	65	 1	 0.0	 0.0	 0.0	 0.0	 1	    1.06995	   -3.95147	 220.0	 2	    1.11000	    0.95000;
	66	 1	 0.0	 0.0	 0.0	 0.0	 1	    1.03651	   -2.99685	 400.0	 2	    1.05000	    0.95000;
	67	 1	 0.0	 0.0	 0.0	 0.0	 1	    1.03647	   -3.00004	 400.0	 2	    1.05000	    0.95000;
	68	 2	 13.0	 30.0	 0.0	 0.0	 1	    1.08594	   -2.81797	 220.0	 2	    1.11000	    0.95000;
	69	 2	 26.0	 60.0	 0.0	 0.0	 1	    1.08578	   -2.80931	 220.0	 2	    1.11000	    0.95000;
	70	 2	 0.0	 2.25	 0.0	 0.0	 1	    1.03040	   -2.95255	 400.0	 2	    1.05000	    0.95000;
	71	 2	 26.0	 60.0	 0.0	 0.0	 1	    1.03046	   -2.94870	 400.0	 2	    1.05000	    0.95000;
	72	 1	 0.0	 0.0	 0.0	 0.0	 1	    1.08776	   -3.32786	 220.0	 2	    1.11000	    0.95000;
	73	 1	 0.0	 0.0	 0.0	 0.0	 1	    1.08776	   -3.32863	 220.0	 2	    1.11000	    0.95000;
	74	 1	 0.0	 0.0	 0.0	 0.0	 1	    1.08332	   -5.26700	 220.0	 2	    1.11000	    0.95000;
	75	 1	 0.0	 0.0	 0.0	 0.0	 1	    1.08336	   -5.26799	 220.0	 2	    1.11000	    0.95000;
	76	 1	 0.0	 0.0	 0.0	 0.0	 1	    1.09260	   -3.92199	 220.0	 2	    1.11000	    0.95000;
	77	 1	 0.0	 0.0	 0.0	 0.0	 1	    1.09260	   -3.91969	 220.0	 2	    1.11000	    0.95000;
	78	 1	 0.0	 0.0	 0.0	 0.0	 1	    1.03769	   -3.57955	 400.0	 2	    1.05000	    0.95000;
	79	 1	 0.0	 0.0	 0.0	 0.0	 1	    1.03766	   -3.58083	 400.0	 2	    1.05000	    0.95000;
	80	 1	 0.0	 0.0	 0.0	 0.0	 1	    1.08174	   -4.10805	 220.0	 2	    1.11000	    0.95000;
	81	 1	 0.0	 0.0	 0.0	 0.0	 1	    1.08250	   -4.07128	 220.0	 2	    1.11000	    0.95000;
	82	 1	 0.0	 0.0	 0.0	 0.0	 1	    1.07357	   -2.69023	 220.0	 2	    1.11000	    0.95000;
	83	 1	 0.0	 0.0	 0.0	 0.0	 1	    1.08573	   -3.94717	 220.0	 3	    1.11000	    0.95000;
	84	 1	 6.41	 2.01	 0.0	 0.0	 1	    1.07682	   -5.35575	 220.0	 3	    1.11000	    0.95000;
	85	 1	 13.89	 5.02	 0.0	 0.0	 1	    1.07661	   -5.36917	 220.0	 3	    1.11000	    0.95000;
	86	 1	 0.0	 0.0	 0.0	 0.0	 1	    1.08496	   -5.28153	 220.0	 3	    1.11000	    0.95000;
	87	 1	 0.0	 0.0	 0.0	 0.0	 1	    1.08507	   -5.26996	 220.0	 3	    1.11000	    0.95000;
	88	 1	 0.0	 0.0	 0.0	 0.0	 1	    1.09530	   -4.40423	 220.0	 3	    1.11000	    0.95000;
	89	 1	 0.0	 0.0	 0.0	 0.0	 1	    1.09535	   -4.40517	 220.0	 3	    1.11000	    0.95000;
	90	 1	 0.0	 0.0	 0.0	 0.0	 1	    1.05733	   -7.35001	 220.0	 3	    1.11000	    0.95000;
	91	 1	 0.0	 0.0	 0.0	 0.0	 1	    1.05710	   -7.35154	 220.0	 3	    1.11000	    0.95000;
	92	 2	 28.0	 70.0	 0.0	 0.0	 1	    1.09308	   -4.20960	 220.0	 3	    1.11000	    0.95000;
	93	 2	 28.0	 68.0	 0.0	 0.0	 1	    1.09203	   -4.09393	 220.0	 3	    1.11000	    0.95000;
	94	 1	 2.78	 1.91	 0.0	 0.0	 1	    1.07469	   -5.12524	 220.0	 3	    1.11000	    0.95000;
	95	 1	 0.0	 0.0	 0.0	 0.0	 1	    1.07471	   -5.12523	 220.0	 3	    1.11000	    0.95000;
	96	 2	 32.0	 142.0	 0.0	 0.0	 1	    1.03548	   -3.35174	 400.0	 3	    1.05000	    0.95000;
	97	 1	 0.0	 0.0	 0.0	 0.0	 1	    1.03557	   -3.36077	 400.0	 3	    1.05000	    0.95000;
	98	 1	 0.0	 0.0	 0.0	 0.0	 1	    1.03801	   -7.35492	 220.0	 3	    1.11000	    0.95000;
	99	 1	 0.0	 0.0	 0.0	 0.0	 1	    1.09214	   -4.47133	 220.0	 3	    1.11000	    0.95000;
	100	 1	 0.0	 0.0	 0.0	 0.0	 1	    1.09216	   -4.47138	 220.0	 3	    1.11000	    0.95000;
	101	 1	 38.8	 -2.7	 0.0	 0.0	 1	    1.08906	   -3.86433	 220.0	 3	    1.11000	    0.95000;
	102	 1	 0.0	 0.0	 0.0	 0.0	 1	    1.08903	   -3.86948	 220.0	 3	    1.11000	    0.95000;
	103	 1	 0.0	 0.0	 0.0	 0.0	 1	    1.08877	   -4.45187	 220.0	 3	    1.11000	    0.95000;
	104	 1	 0.0	 0.0	 0.0	 0.0	 1	    1.08872	   -4.45678	 220.0	 3	    1.11000	    0.95000;
	105	 1	 0.0	 0.0	 0.0	 0.0	 1	    1.09108	   -3.43731	 220.0	 3	    1.11000	    0.95000;
	106	 1	 0.0	 0.0	 0.0	 0.0	 1	    1.09109	   -3.43710	 220.0	 3	    1.11000	    0.95000;
	107	 1	 0.0	 0.0	 0.0	 0.0	 1	    1.04805	   -2.26012	 400.0	 3	    1.05000	    0.95000;
	108	 1	 0.0	 0.0	 0.0	 0.0	 1	    1.04806	   -2.25487	 400.0	 3	    1.05000	    0.95000;
	109	 1	 0.0	 0.0	 0.0	 0.0	 1	    1.09331	   -4.54372	 220.0	 3	    1.11000	    0.95000;
	110	 1	 0.0	 0.0	 0.0	 0.0	 1	    1.09330	   -4.54480	 220.0	 3	    1.11000	    0.95000;
	111	 1	 0.0	 0.0	 0.0	 0.0	 1	    1.06417	   -5.36232	 220.0	 3	    1.11000	    0.95000;
	112	 1	 0.0	 0.0	 0.0	 0.0	 1	    1.06405	   -5.37239	 220.0	 3	    1.11000	    0.95000;
	113	 2	 38.41	 12.71	 0.0	 0.0	 1	    1.08761	   -4.46438	 220.0	 3	    1.11000	    0.95000;
	114	 1	 0.0	 0.0	 0.0	 0.0	 1	    1.08760	   -4.46597	 220.0	 3	    1.11000	    0.95000;
	115	 1	 0.0	 0.0	 0.0	 0.0	 1	    1.07692	   -5.33747	 220.0	 3	    1.11000	    0.95000;
	116	 1	 0.0	 0.0	 0.0	 0.0	 1	    1.07694	   -5.34092	 220.0	 3	    1.11000	    0.95000;
	117	 1	 0.0	 0.0	 0.0	 0.0	 1	    1.04433	   -7.39944	 220.0	 3	    1.11000	    0.95000;
	118	 1	 0.0	 0.0	 0.0	 0.0	 1	    1.04425	   -7.39681	 220.0	 3	    1.11000	    0.95000;
	119	 2	 10.0	 44.0	 0.0	 0.0	 1	    1.09478	   -4.26817	 220.0	 3	    1.11000	    0.95000;
	120	 2	 10.0	 44.0	 0.0	 0.0	 1	    1.09494	   -4.28377	 220.0	 3	    1.11000	    0.95000;
	121	 2	 7.0	 18.0	 0.0	 0.0	 1	    1.09456	   -4.01262	 220.0	 3	    1.11000	    0.95000;
	122	 2	 8.0	 21.0	 0.0	 0.0	 1	    1.09460	   -4.01295	 220.0	 3	    1.11000	    0.95000;
	123	 1	 0.0	 0.0	 0.0	 0.0	 1	    1.08568	   -4.63700	 220.0	 3	    1.11000	    0.95000;
	124	 1	 59.4	 11.61	 0.0	 0.0	 1	    1.08569	   -4.64176	 220.0	 3	    1.11000	    0.95000;
	125	 1	 0.0	 0.0	 0.0	 0.0	 1	    1.04764	   -6.96464	 220.0	 3	    1.11000	    0.95000;
	126	 1	 0.0	 0.0	 0.0	 0.0	 1	    1.06938	   -5.04032	 220.0	 3	    1.11000	    0.95000;
	127	 1	 0.0	 0.0	 0.0	 0.0	 1	    1.06941	   -5.04065	 220.0	 3	    1.11000	    0.95000;
	128	 1	 0.0	 0.0	 0.0	 0.0	 1	    1.07620	   -5.12733	 220.0	 3	    1.11000	    0.95000;
	129	 1	 0.0	 0.0	 0.0	 0.0	 1	    1.07632	   -5.11997	 220.0	 3	    1.11000	    0.95000;
	130	 1	 0.0	 0.0	 0.0	 0.0	 1	    1.03699	   -3.30044	 400.0	 3	    1.05000	    0.95000;
	131	 1	 0.0	 0.0	 0.0	 0.0	 1	    1.03699	   -3.30044	 400.0	 3	    1.05000	    0.95000;
	132	 2	 0.0	 1.78	 0.0	 0.0	 1	    1.09080	   -4.60022	 220.0	 3	    1.11000	    0.95000;
	133	 2	 9.0	 20.0	 0.0	 0.0	 1	    1.09073	   -4.60043	 220.0	 3	    1.11000	    0.95000;
	134	 2	 6.0	 15.0	 0.0	 0.0	 1	    1.05942	   -5.88730	 220.0	 3	    1.11000	    0.95000;
	135	 1	 0.0	 0.0	 0.0	 0.0	 1	    1.05950	   -5.88723	 220.0	 3	    1.11000	    0.95000;
	136	 1	 0.0	 0.0	 0.0	 0.0	 1	    1.03608	   -3.62219	 400.0	 3	    1.05000	    0.95000;
	137	 1	 0.0	 0.0	 0.0	 0.0	 1	    1.03612	   -3.62117	 400.0	 3	    1.05000	    0.95000;
	138	 1	 0.0	 0.0	 0.0	 0.0	 1	    1.04687	   -3.19405	 400.0	 3	    1.05000	    0.95000;
	139	 1	 0.0	 0.0	 0.0	 0.0	 1	    1.04689	   -3.19010	 400.0	 3	    1.05000	    0.95000;
	140	 1	 0.0	 0.0	 0.0	 0.0	 1	    1.03972	   -7.20619	 220.0	 3	    1.11000	    0.95000;
	141	 1	 0.0	 0.0	 0.0	 0.0	 1	    1.03974	   -7.20224	 220.0	 3	    1.11000	    0.95000;
	142	 2	 18.2	 37.21	 0.0	 0.0	 1	    1.08415	   -3.80756	 220.0	 3	    1.11000	    0.95000;
	143	 2	 41.52	 73.01	 0.0	 0.0	 1	    1.08414	   -3.80595	 220.0	 3	    1.11000	    0.95000;
	144	 2	 28.0	 66.0	 0.0	 0.0	 1	    1.03551	   -2.48921	 400.0	 3	    1.05000	    0.95000;
	145	 1	 0.0	 0.0	 0.0	 0.0	 1	    1.03549	   -2.49870	 400.0	 3	    1.05000	    0.95000;
	146	 1	 0.0	 0.0	 0.0	 0.0	 1	    1.08824	   -3.97043	 220.0	 3	    1.11000	    0.95000;
	147	 1	 0.0	 0.0	 0.0	 0.0	 1	    1.08828	   -3.96688	 220.0	 3	    1.11000	    0.95000;
	148	 1	 0.0	 0.0	 0.0	 0.0	 1	    1.09229	   -4.26473	 220.0	 3	    1.11000	    0.95000;
	149	 1	 0.0	 0.0	 0.0	 0.0	 1	    1.08996	   -3.72783	 220.0	 3	    1.11000	    0.95000;
	150	 2	 0.0	 -0.79	 0.0	 0.0	 1	    1.05741	   -7.35058	 220.0	 3	    1.11000	    0.95000;
	151	 2	 0.0	 -0.79	 0.0	 0.0	 1	    1.05717	   -7.35212	 220.0	 3	    1.11000	    0.95000;
	152	 2	 7.7	 20.0	 0.0	 0.0	 1	    1.09886	   -5.77159	 220.0	 4	    1.11000	    0.95000;
	153	 2	 7.8	 20.0	 0.0	 0.0	 1	    1.09890	   -5.77430	 220.0	 4	    1.11000	    0.95000;
	154	 1	 0.0	 0.0	 0.0	 0.0	 1	    1.06086	  -12.90651	 220.0	 4	    1.11000	    0.95000;
	155	 1	 0.0	 0.0	 0.0	 0.0	 1	    1.06087	  -12.90681	 220.0	 4	    1.11000	    0.95000;
	156	 1	 0.0	 0.0	 0.0	 0.0	 1	    1.03948	  -13.64933	 220.0	 4	    1.11000	    0.95000;
	157	 1	 0.0	 0.0	 0.0	 0.0	 1	    1.07904	  -11.72258	 220.0	 4	    1.11000	    0.95000;
	158	 1	 0.0	 0.0	 0.0	 0.0	 1	    1.07895	  -11.72914	 220.0	 4	    1.11000	    0.95000;
	159	 1	 0.0	 0.0	 0.0	 0.0	 1	    1.03281	   -8.25271	 400.0	 4	    1.05000	    0.95000;
	160	 1	 0.0	 0.0	 0.0	 0.0	 1	    1.03279	   -8.25291	 400.0	 4	    1.05000	    0.95000;
	161	 1	 0.0	 0.0	 0.0	 0.0	 1	    1.04407	  -14.81490	 220.0	 4	    1.11000	    0.95000;
	162	 1	 0.0	 0.0	 0.0	 0.0	 1	    1.07375	  -20.07141	 220.0	 4	    1.11000	    0.95000;
	163	 1	 0.0	 0.0	 0.0	 0.0	 1	    1.07375	  -20.07141	 220.0	 4	    1.11000	    0.95000;
	164	 1	 0.0	 0.0	 0.0	 0.0	 1	    1.05810	  -19.70877	 220.0	 4	    1.11000	    0.95000;
	165	 1	 0.0	 0.0	 0.0	 0.0	 1	    1.05810	  -19.70877	 220.0	 4	    1.11000	    0.95000;
	166	 1	 0.0	 0.0	 0.0	 0.0	 1	    1.03595	  -13.79450	 220.0	 4	    1.11000	    0.95000;
	167	 2	 0.0	 -13.01	 0.0	 0.0	 1	    1.08875	   -8.03901	 220.0	 4	    1.11000	    0.95000;
	168	 1	 0.0	 0.0	 0.0	 0.0	 1	    1.08880	   -8.04433	 220.0	 4	    1.11000	    0.95000;
	169	 2	 12.0	 30.0	 0.0	 0.0	 1	    1.09716	  -18.85546	 220.0	 4	    1.11000	    0.95000;
	170	 2	 19.91	 36.57	 0.0	 0.0	 1	    1.09740	  -18.83317	 220.0	 4	    1.11000	    0.95000;
	171	 2	 12.0	 30.0	 0.0	 0.0	 1	    1.04966	  -13.10302	 400.0	 4	    1.05000	    0.95000;
	172	 2	 12.0	 30.0	 0.0	 0.0	 1	    1.04971	  -13.09604	 400.0	 4	    1.05000	    0.95000;
	173	 1	 0.0	 0.0	 0.0	 0.0	 1	    1.01213	  -17.20549	 220.0	 4	    1.11000	    0.95000;
	174	 1	 0.0	 0.0	 0.0	 0.0	 1	    1.01217	  -17.20477	 220.0	 4	    1.11000	    0.95000;
	175	 1	 0.0	 0.0	 0.0	 0.0	 1	    1.03891	  -17.67442	 220.0	 4	    1.11000	    0.95000;
	176	 1	 0.0	 0.0	 0.0	 0.0	 1	    1.03903	  -17.66681	 220.0	 4	    1.11000	    0.95000;
	177	 2	 30.5	 64.2	 0.0	 0.0	 1	    1.11000	   -8.90052	 220.0	 4	    1.11000	    0.95000;
	178	 2	 58.9	 96.0	 0.0	 0.0	 1	    1.11000	   -8.89991	 220.0	 4	    1.11000	    0.95000;
	179	 1	 0.0	 0.0	 0.0	 0.0	 1	    1.11000	   -8.89991	 220.0	 4	    1.11000	    0.95000;
	180	 2	 26.5	 64.2	 0.0	 0.0	 1	    1.04911	   -5.66122	 400.0	 4	    1.05000	    0.95000;
	181	 1	 0.0	 0.0	 0.0	 0.0	 1	    1.04907	   -5.66149	 400.0	 4	    1.05000	    0.95000;
	182	 1	 0.0	 0.0	 0.0	 0.0	 1	    1.07872	  -20.09592	 220.0	 4	    1.11000	    0.95000;
	183	 1	 0.0	 0.0	 0.0	 0.0	 1	    1.07872	  -20.09592	 220.0	 4	    1.11000	    0.95000;
	184	 1	 0.0	 0.0	 0.0	 0.0	 1	    1.03581	   -5.28483	 400.0	 4	    1.05000	    0.95000;
	185	 1	 0.0	 0.0	 0.0	 0.0	 1	    1.01732	  -10.78625	 400.0	 4	    1.05000	    0.95000;
	186	 1	 0.0	 0.0	 0.0	 0.0	 1	    1.03278	   -6.76064	 400.0	 4	    1.05000	    0.95000;
	187	 1	 0.0	 0.0	 0.0	 0.0	 1	    1.03281	   -6.75039	 400.0	 4	    1.05000	    0.95000;
	188	 2	 12.0	 30.0	 0.0	 0.0	 1	    1.09086	   -7.93637	 220.0	 4	    1.11000	    0.95000;
	189	 2	 23.8	 60.0	 0.0	 0.0	 1	    1.09082	   -7.95953	 220.0	 4	    1.11000	    0.95000;
	190	 2	 38.0	 64.0	 0.0	 0.0	 1	    1.01059	   -1.28111	 400.0	 4	    1.05000	    0.95000;
	191	 1	 0.0	 0.0	 0.0	 0.0	 1	    1.04177	  -19.71197	 220.0	 4	    1.11000	    0.95000;
	192	 1	 0.0	 0.0	 0.0	 0.0	 1	    1.04179	  -19.71620	 220.0	 4	    1.11000	    0.95000;
	193	 1	 0.0	 0.0	 0.0	 0.0	 1	    1.07226	  -20.14657	 220.0	 4	    1.11000	    0.95000;
	194	 1	 0.0	 0.0	 0.0	 0.0	 1	    1.07226	  -20.14760	 220.0	 4	    1.11000	    0.95000;
	195	 1	 0.0	 0.0	 0.0	 0.0	 1	    1.04920	  -15.27680	 220.0	 4	    1.11000	    0.95000;
	196	 1	 0.0	 0.0	 0.0	 0.0	 1	    1.04910	  -15.28318	 220.0	 4	    1.11000	    0.95000;
	197	 1	 0.0	 0.0	 0.0	 0.0	 1	    1.00955	  -12.42548	 400.0	 4	    1.05000	    0.95000;
	198	 1	 0.0	 0.0	 0.0	 0.0	 1	    1.03045	  -15.29798	 220.0	 4	    1.11000	    0.95000;
	199	 1	 0.0	 0.0	 0.0	 0.0	 1	    1.03046	  -15.29466	 220.0	 4	    1.11000	    0.95000;
	200	 1	 0.0	 0.0	 0.0	 0.0	 1	    1.03987	  -15.93854	 220.0	 4	    1.11000	    0.95000;
...
];

%% generator data
%	bus	Pg	Qg	Qmax	Qmin	Vg	mBase	status	Pmax	Pmin	Pc1	Pc2	Qc1min	Qc1max	Qc2min	Qc2max	ramp_agc	ramp_10	ramp_30	ramp_q	apf
mpc.gen = [
	22	 221.0	 -60.999	 162.0	 -61.0	 1.06652	 235.0	 1	 221.0	 110.0	 0.0	 0.0	 0.0	 0.0	 0.0	 0.0	 0.0	 0.0	 0.0	 0.0	 0.0;
	23	 200.0	 25.934	 140.0	 -25.0	 1.06657	 235.0	 1	 200.0	 140.0	 0.0	 0.0	 0.0	 0.0	 0.0	 0.0	 0.0	 0.0	 0.0	 0.0	 0.0;
	35	 0.0	 0.0	 190.0	 -19.0	 1.11	 426.0	 0	 370.0	 240.0	 0.0	 0.0	 0.0	 0.0	 0.0	 0.0	 0.0	 0.0	 0.0	 0.0	 0.0;
	35	 0.0	 0.0	 190.0	 -19.0	 1.11	 426.0	 0	 370.0	 240.0	 0.0	 0.0	 0.0	 0.0	 0.0	 0.0	 0.0	 0.0	 0.0	 0.0	 0.0;
	35	 370.0	 98.873	 190.0	 -19.0	 1.11	 426.0	 1	 370.0	 240.0	 0.0	 0.0	 0.0	 0.0	 0.0	 0.0	 0.0	 0.0	 0.0	 0.0	 0.0;
	36	 370.0	 66.002	 190.0	 -19.0	 1.11	 426.0	 1	 370.0	 240.0	 0.0	 0.0	 0.0	 0.0	 0.0	 0.0	 0.0	 0.0	 0.0	 0.0	 0.0;
	36	 370.0	 66.002	 190.0	 -19.0	 1.11	 426.0	 1	 370.0	 240.0	 0.0	 0.0	 0.0	 0.0	 0.0	 0.0	 0.0	 0.0	 0.0	 0.0	 0.0;
	37	 370.0	 31.566	 190.0	 -19.0	 1.05	 426.0	 1	 370.0	 240.0	 0.0	 0.0	 0.0	 0.0	 0.0	 0.0	 0.0	 0.0	 0.0	 0.0	 0.0;
	37	 370.0	 31.566	 190.0	 -19.0	 1.05	 426.0	 1	 370.0	 240.0	 0.0	 0.0	 0.0	 0.0	 0.0	 0.0	 0.0	 0.0	 0.0	 0.0	 0.0;
	37	 370.0	 31.566	 190.0	 -19.0	 1.05	 426.0	 1	 370.0	 240.0	 0.0	 0.0	 0.0	 0.0	 0.0	 0.0	 0.0	 0.0	 0.0	 0.0	 0.0;
	38	 370.0	 2.861	 190.0	 -19.0	 1.05	 426.0	 1	 370.0	 240.0	 0.0	 0.0	 0.0	 0.0	 0.0	 0.0	 0.0	 0.0	 0.0	 0.0	 0.0;
	38	 370.0	 2.861	 190.0	 -19.0	 1.05	 426.0	 1	 370.0	 240.0	 0.0	 0.0	 0.0	 0.0	 0.0	 0.0	 0.0	 0.0	 0.0	 0.0	 0.0;
	38	 370.0	 2.861	 190.0	 -19.0	 1.05	 426.0	 1	 370.0	 240.0	 0.0	 0.0	 0.0	 0.0	 0.0	 0.0	 0.0	 0.0	 0.0	 0.0	 0.0;
	55	 180.061	 -0.115	 152.0	 -33.0	 1.09988	 235.0	 1	 215.0	 110.0	 0.0	 0.0	 0.0	 0.0	 0.0	 0.0	 0.0	 0.0	 0.0	 0.0	 0.0;
	55	 0.0	 0.0	 152.0	 -33.0	 1.09988	 235.0	 0	 220.0	 125.0	 0.0	 0.0	 0.0	 0.0	 0.0	 0.0	 0.0	 0.0	 0.0	 0.0	 0.0;
	56	 0.0	 0.0	 149.0	 -33.0	 1.09988	 235.0	 0	 225.0	 125.0	 0.0	 0.0	 0.0	 0.0	 0.0	 0.0	 0.0	 0.0	 0.0	 0.0	 0.0;
	56	 224.999	 148.729	 149.0	 -33.0	 1.09988	 235.0	 1	 225.0	 110.0	 0.0	 0.0	 0.0	 0.0	 0.0	 0.0	 0.0	 0.0	 0.0	 0.0	 0.0;
	57	 224.996	 15.186	 149.0	 -33.0	 1.09998	 235.0	 1	 225.0	 110.0	 0.0	 0.0	 0.0	 0.0	 0.0	 0.0	 0.0	 0.0	 0.0	 0.0	 0.0;
	57	 224.996	 15.186	 149.0	 -33.0	 1.09998	 235.0	 1	 225.0	 120.0	 0.0	 0.0	 0.0	 0.0	 0.0	 0.0	 0.0	 0.0	 0.0	 0.0	 0.0;
	58	 535.0	 150.0	 363.0	 -47.0	 1.05	 588.0	 1	 535.0	 255.0	 0.0	 0.0	 0.0	 0.0	 0.0	 0.0	 0.0	 0.0	 0.0	 0.0	 0.0;
	59	 560.0	 114.078	 348.0	 -100.0	 1.05	 588.0	 1	 560.0	 250.0	 0.0	 0.0	 0.0	 0.0	 0.0	 0.0	 0.0	 0.0	 0.0	 0.0	 0.0;
	68	 129.0	 -14.0	 120.0	 -14.0	 1.08594	 235.0	 1	 225.0	 129.0	 0.0	 0.0	 0.0	 0.0	 0.0	 0.0	 0.0	 0.0	 0.0	 0.0	 0.0;
	69	 129.0	 -14.0	 120.0	 -14.0	 1.08578	 235.0	 1	 225.0	 129.0	 0.0	 0.0	 0.0	 0.0	 0.0	 0.0	 0.0	 0.0	 0.0	 0.0	 0.0;
	69	 129.0	 -10.0	 99.0	 -10.0	 1.08578	 235.0	 1	 225.0	 129.0	 0.0	 0.0	 0.0	 0.0	 0.0	 0.0	 0.0	 0.0	 0.0	 0.0	 0.0;
	70	 0.0	 0.0	 120.0	 -14.0	 1.0304	 235.0	 0	 225.0	 129.0	 0.0	 0.0	 0.0	 0.0	 0.0	 0.0	 0.0	 0.0	 0.0	 0.0	 0.0;
	70	 0.0	 0.0	 120.0	 -14.0	 1.0304	 235.0	 0	 225.0	 129.0	 0.0	 0.0	 0.0	 0.0	 0.0	 0.0	 0.0	 0.0	 0.0	 0.0	 0.0;
	71	 129.0	 -10.0	 99.0	 -10.0	 1.03046	 235.0	 1	 225.0	 129.0	 0.0	 0.0	 0.0	 0.0	 0.0	 0.0	 0.0	 0.0	 0.0	 0.0	 0.0;
	71	 129.0	 -14.0	 120.0	 -14.0	 1.03046	 235.0	 1	 225.0	 129.0	 0.0	 0.0	 0.0	 0.0	 0.0	 0.0	 0.0	 0.0	 0.0	 0.0	 0.0;
	92	 220.0	 123.804	 134.0	 -7.0	 1.09308	 271.0	 1	 220.0	 140.0	 0.0	 0.0	 0.0	 0.0	 0.0	 0.0	 0.0	 0.0	 0.0	 0.0	 0.0;
	92	 225.0	 120.829	 131.0	 -6.0	 1.09308	 271.0	 1	 225.0	 140.0	 0.0	 0.0	 0.0	 0.0	 0.0	 0.0	 0.0	 0.0	 0.0	 0.0	 0.0;
	93	 0.0	 0.0	 131.0	 -6.0	 1.09203	 271.0	 0	 225.0	 140.0	 0.0	 0.0	 0.0	 0.0	 0.0	 0.0	 0.0	 0.0	 0.0	 0.0	 0.0;
	93	 225.0	 104.734	 131.0	 -6.0	 1.09203	 271.0	 1	 225.0	 140.0	 0.0	 0.0	 0.0	 0.0	 0.0	 0.0	 0.0	 0.0	 0.0	 0.0	 0.0;
	93	 225.0	 104.734	 131.0	 -6.0	 1.09203	 271.0	 1	 225.0	 140.0	 0.0	 0.0	 0.0	 0.0	 0.0	 0.0	 0.0	 0.0	 0.0	 0.0	 0.0;
	96	 180.0	 -15.692	 213.0	 -30.0	 1.03548	 426.0	 1	 383.0	 180.0	 0.0	 0.0	 0.0	 0.0	 0.0	 0.0	 0.0	 0.0	 0.0	 0.0	 0.0;
	96	 180.0	 -16.692	 212.0	 -31.0	 1.03548	 435.0	 1	 380.0	 180.0	 0.0	 0.0	 0.0	 0.0	 0.0	 0.0	 0.0	 0.0	 0.0	 0.0	 0.0;
	113	 0.0	 0.0	 0.0	 0.0	 1.08761	 12.0	 0	 12.0	 0.0	 0.0	 0.0	 0.0	 0.0	 0.0	 0.0	 0.0	 0.0	 0.0	 0.0	 0.0;
	113	 0.0	 0.0	 0.0	 0.0	 1.08761	 6.0	 0	 6.0	 0.0	 0.0	 0.0	 0.0	 0.0	 0.0	 0.0	 0.0	 0.0	 0.0	 0.0	 0.0;
	113	 21.0	 0.0	 0.0	 0.0	 1.08761	 26.0	 1	 21.0	 0.0	 0.0	 0.0	 0.0	 0.0	 0.0	 0.0	 0.0	 0.0	 0.0	 0.0	 0.0;
	119	 173.293	 24.494	 120.0	 -10.0	 1.09478	 271.0	 1	 225.0	 120.0	 0.0	 0.0	 0.0	 0.0	 0.0	 0.0	 0.0	 0.0	 0.0	 0.0	 0.0;
	120	 225.0	 119.985	 120.0	 -10.0	 1.09494	 271.0	 1	 225.0	 120.0	 0.0	 0.0	 0.0	 0.0	 0.0	 0.0	 0.0	 0.0	 0.0	 0.0	 0.0;
	121	 120.0	 22.475	 73.0	 -1.0	 1.09456	 150.0	 1	 120.0	 70.0	 0.0	 0.0	 0.0	 0.0	 0.0	 0.0	 0.0	 0.0	 0.0	 0.0	 0.0;
	122	 120.0	 -0.994	 73.0	 -1.0	 1.0946	 150.0	 1	 120.0	 70.0	 0.0	 0.0	 0.0	 0.0	 0.0	 0.0	 0.0	 0.0	 0.0	 0.0	 0.0;
	132	 0.0	 0.0	 79.0	 0.0	 1.0908	 150.0	 0	 120.0	 70.0	 0.0	 0.0	 0.0	 0.0	 0.0	 0.0	 0.0	 0.0	 0.0	 0.0	 0.0;
	133	 70.0	 78.998	 79.0	 0.0	 1.09073	 150.0	 1	 120.0	 70.0	 0.0	 0.0	 0.0	 0.0	 0.0	 0.0	 0.0	 0.0	 0.0	 0.0	 0.0;
	134	 91.392	 31.0	 31.0	 0.0	 1.05942	 118.0	 1	 110.0	 80.0	 0.0	 0.0	 0.0	 0.0	 0.0	 0.0	 0.0	 0.0	 0.0	 0.0	 0.0;
	142	 135.0	 -34.999	 135.0	 -35.0	 1.08415	 271.0	 1	 215.0	 135.0	 0.0	 0.0	 0.0	 0.0	 0.0	 0.0	 0.0	 0.0	 0.0	 0.0	 0.0;
	143	 135.0	 7.98	 135.0	 -35.0	 1.08414	 271.0	 1	 215.0	 135.0	 0.0	 0.0	 0.0	 0.0	 0.0	 0.0	 0.0	 0.0	 0.0	 0.0	 0.0;
	143	 135.0	 8.483	 140.0	 -35.0	 1.08414	 271.0	 1	 225.0	 135.0	 0.0	 0.0	 0.0	 0.0	 0.0	 0.0	 0.0	 0.0	 0.0	 0.0	 0.0;
	144	 190.126	 -35.999	 140.0	 -36.0	 1.03551	 271.0	 1	 225.0	 135.0	 0.0	 0.0	 0.0	 0.0	 0.0	 0.0	 0.0	 0.0	 0.0	 0.0	 0.0;
	144	 186.58	 -35.999	 137.0	 -36.0	 1.03551	 271.0	 1	 220.0	 135.0	 0.0	 0.0	 0.0	 0.0	 0.0	 0.0	 0.0	 0.0	 0.0	 0.0	 0.0;
	150	 0.0	 0.0	 72.0	 -29.0	 1.05741	 150.0	 0	 135.0	 -135.0	 0.0	 0.0	 0.0	 0.0	 0.0	 0.0	 0.0	 0.0	 0.0	 0.0	 0.0;
	150	 0.0	 0.0	 72.0	 -29.0	 1.05741	 150.0	 0	 135.0	 -135.0	 0.0	 0.0	 0.0	 0.0	 0.0	 0.0	 0.0	 0.0	 0.0	 0.0	 0.0;
	151	 0.0	 0.0	 72.0	 -29.0	 1.05717	 150.0	 0	 135.0	 -135.0	 0.0	 0.0	 0.0	 0.0	 0.0	 0.0	 0.0	 0.0	 0.0	 0.0	 0.0;
	151	 0.0	 0.0	 72.0	 -29.0	 1.05717	 150.0	 0	 135.0	 -135.0	 0.0	 0.0	 0.0	 0.0	 0.0	 0.0	 0.0	 0.0	 0.0	 0.0	 0.0;
	152	 120.0	 85.0	 85.0	 -15.0	 1.09886	 150.0	 1	 120.0	 100.0	 0.0	 0.0	 0.0	 0.0	 0.0	 0.0	 0.0	 0.0	 0.0	 0.0	 0.0;
	152	 0.0	 0.0	 85.0	 -15.0	 1.09886	 150.0	 0	 120.0	 100.0	 0.0	 0.0	 0.0	 0.0	 0.0	 0.0	 0.0	 0.0	 0.0	 0.0	 0.0;
	153	 120.0	 85.0	 85.0	 -15.0	 1.0989	 150.0	 1	 120.0	 100.0	 0.0	 0.0	 0.0	 0.0	 0.0	 0.0	 0.0	 0.0	 0.0	 0.0	 0.0;
	167	 0.0	 0.0	 12.0	 0.0	 1.08875	 51.0	 0	 50.0	 40.0	 0.0	 0.0	 0.0	 0.0	 0.0	 0.0	 0.0	 0.0	 0.0	 0.0	 0.0;
	169	 205.0	 9.947	 111.0	 -21.0	 1.09716	 238.0	 1	 205.0	 135.0	 0.0	 0.0	 0.0	 0.0	 0.0	 0.0	 0.0	 0.0	 0.0	 0.0	 0.0;
	170	 0.0	 0.0	 102.0	 -15.0	 1.0974	 252.0	 0	 222.0	 90.0	 0.0	 0.0	 0.0	 0.0	 0.0	 0.0	 0.0	 0.0	 0.0	 0.0	 0.0;
	170	 0.0	 0.0	 111.0	 -21.0	 1.0974	 238.0	 0	 205.0	 135.0	 0.0	 0.0	 0.0	 0.0	 0.0	 0.0	 0.0	 0.0	 0.0	 0.0	 0.0;
	170	 232.0	 119.0	 119.0	 -31.0	 1.0974	 252.0	 1	 232.0	 100.0	 0.0	 0.0	 0.0	 0.0	 0.0	 0.0	 0.0	 0.0	 0.0	 0.0	 0.0;
	171	 222.0	 46.024	 102.0	 -15.0	 1.04966	 252.0	 1	 222.0	 90.0	 0.0	 0.0	 0.0	 0.0	 0.0	 0.0	 0.0	 0.0	 0.0	 0.0	 0.0;
	172	 0.0	 0.0	 93.0	 -10.0	 1.04971	 252.0	 0	 232.0	 100.0	 0.0	 0.0	 0.0	 0.0	 0.0	 0.0	 0.0	 0.0	 0.0	 0.0	 0.0;
	172	 222.0	 101.998	 102.0	 -15.0	 1.04971	 252.0	 1	 222.0	 90.0	 0.0	 0.0	 0.0	 0.0	 0.0	 0.0	 0.0	 0.0	 0.0	 0.0	 0.0;
	177	 104.0	 82.895	 127.0	 -35.0	 1.11	 287.0	 1	 261.0	 104.0	 0.0	 0.0	 0.0	 0.0	 0.0	 0.0	 0.0	 0.0	 0.0	 0.0	 0.0;
	177	 94.0	 98.523	 145.0	 -38.0	 1.11	 264.0	 1	 235.0	 94.0	 0.0	 0.0	 0.0	 0.0	 0.0	 0.0	 0.0	 0.0	 0.0	 0.0	 0.0;
	178	 0.0	 0.0	 103.0	 -17.0	 1.11	 238.0	 0	 206.0	 120.0	 0.0	 0.0	 0.0	 0.0	 0.0	 0.0	 0.0	 0.0	 0.0	 0.0	 0.0;
	178	 94.0	 80.033	 145.0	 -38.0	 1.11	 264.0	 1	 235.0	 94.0	 0.0	 0.0	 0.0	 0.0	 0.0	 0.0	 0.0	 0.0	 0.0	 0.0	 0.0;
	178	 104.0	 67.153	 127.0	 -35.0	 1.11	 287.0	 1	 261.0	 104.0	 0.0	 0.0	 0.0	 0.0	 0.0	 0.0	 0.0	 0.0	 0.0	 0.0	 0.0;
	178	 104.0	 67.153	 127.0	 -35.0	 1.11	 287.0	 1	 261.0	 104.0	 0.0	 0.0	 0.0	 0.0	 0.0	 0.0	 0.0	 0.0	 0.0	 0.0	 0.0;
	180	 120.0	 103.0	 103.0	 -17.0	 1.04911	 238.0	 1	 206.0	 120.0	 0.0	 0.0	 0.0	 0.0	 0.0	 0.0	 0.0	 0.0	 0.0	 0.0	 0.0;
	180	 120.0	 103.0	 103.0	 -17.0	 1.04911	 238.0	 1	 206.0	 120.0	 0.0	 0.0	 0.0	 0.0	 0.0	 0.0	 0.0	 0.0	 0.0	 0.0	 0.0;
	188	 225.0	 112.0	 112.0	 -32.0	 1.09086	 233.0	 1	 225.0	 150.0	 0.0	 0.0	 0.0	 0.0	 0.0	 0.0	 0.0	 0.0	 0.0	 0.0	 0.0;
	189	 200.0	 112.0	 112.0	 -32.0	 1.09082	 233.0	 1	 200.0	 150.0	 0.0	 0.0	 0.0	 0.0	 0.0	 0.0	 0.0	 0.0	 0.0	 0.0	 0.0;
	189	 0.0	 0.0	 112.0	 -32.0	 1.09082	 233.0	 0	 200.0	 150.0	 0.0	 0.0	 0.0	 0.0	 0.0	 0.0	 0.0	 0.0	 0.0	 0.0	 0.0;
	189	 200.0	 112.0	 112.0	 -32.0	 1.09082	 233.0	 1	 200.0	 150.0	 0.0	 0.0	 0.0	 0.0	 0.0	 0.0	 0.0	 0.0	 0.0	 0.0	 0.0;
	190	 464.0	 155.156	 294.0	 -259.0	 1.01059	 464.0	 1	 464.0	 186.0	 0.0	 0.0	 0.0	 0.0	 0.0	 0.0	 0.0	 0.0	 0.0	 0.0	 0.0;
	204	 0.0	 0.0	 100.0	 0.0	 1.04028	 218.0	 0	 188.0	 76.0	 0.0	 0.0	 0.0	 0.0	 0.0	 0.0	 0.0	 0.0	 0.0	 0.0	 0.0;
	236	 179.0	 -61.981	 105.0	 -62.0	 1.03207	 209.0	 1	 179.0	 -200.0	 0.0	 0.0	 0.0	 0.0	 0.0	 0.0	 0.0	 0.0	 0.0	 0.0	 0.0;
	236	 179.0	 -61.981	 105.0	 -62.0	 1.03207	 209.0	 1	 179.0	 -200.0	 0.0	 0.0	 0.0	 0.0	 0.0	 0.0	 0.0	 0.0	 0.0	 0.0	 0.0;
	236	 179.0	 -74.981	 130.0	 -75.0	 1.03207	 209.0	 1	 179.0	 -200.0	 0.0	 0.0	 0.0	 0.0	 0.0	 0.0	 0.0	 0.0	 0.0	 0.0	 0.0;
	237	 179.0	 12.316	 160.0	 -100.0	 1.03209	 209.0	 1	 179.0	 -200.0	 0.0	 0.0	 0.0	 0.0	 0.0	 0.0	 0.0	 0.0	 0.0	 0.0	 0.0;
	240	 223.815	 38.178	 150.0	 0.0	 1.11	 156.0	 1	 250.0	 113.0	 0.0	 0.0	 0.0	 0.0	 0.0	 0.0	 0.0	 0.0	 0.0	 0.0	 0.0;
	250	 0.0	 0.0	 20.0	 0.0	 1.10237	 79.0	 0	 55.0	 23.0	 0.0	 0.0	 0.0	 0.0	 0.0	 0.0	 0.0	 0.0	 0.0	 0.0	 0.0;
	250	 0.0	 0.0	 20.0	 0.0	 1.10237	 69.0	 0	 50.0	 25.0	 0.0	 0.0	 0.0	 0.0	 0.0	 0.0	 0.0	 0.0	 0.0	 0.0	 0.0;
	251	 23.0	 0.0	 20.0	 0.0	 1.10237	 28.0	 1	 23.0	 7.0	 0.0	 0.0	 0.0	 0.0	 0.0	 0.0	 0.0	 0.0	 0.0	 0.0	 0.0;
	251	 0.0	 0.0	 20.0	 0.0	 1.10237	 69.0	 0	 50.0	 25.0	 0.0	 0.0	 0.0	 0.0	 0.0	 0.0	 0.0	 0.0	 0.0	 0.0	 0.0;
	267	 2.0	 1.0	 1.0	 0.0	 1.09628	 1.0	 1	 2.0	 0.0	 0.0	 0.0	 0.0	 0.0	 0.0	 0.0	 0.0	 0.0	 0.0	 0.0	 0.0;
	268	 2.0	 1.0	 1.0	 0.0	 1.08091	 1.0	 1	 2.0	 0.0	 0.0	 0.0	 0.0	 0.0	 0.0	 0.0	 0.0	 0.0	 0.0	 0.0	 0.0;
	282	 0.0	 0.0	 5.0	 0.0	 1.10726	 10.0	 0	 7.0	 6.0	 0.0	 0.0	 0.0	 0.0	 0.0	 0.0	 0.0	 0.0	 0.0	 0.0	 0.0;
	283	 0.0	 0.0	 5.0	 0.0	 1.10706	 10.0	 0	 7.0	 6.0	 0.0	 0.0	 0.0	 0.0	 0.0	 0.0	 0.0	 0.0	 0.0	 0.0	 0.0;
	301	 5.0	 3.75	 3.75	 0.0	 1.08116	 5.0	 1	 5.0	 1.0	 0.0	 0.0	 0.0	 0.0	 0.0	 0.0	 0.0	 0.0	 0.0	 0.0	 0.0;
	301	 5.0	 3.75	 3.75	 0.0	 1.08116	 5.0	 1	 5.0	 1.0	 0.0	 0.0	 0.0	 0.0	 0.0	 0.0	 0.0	 0.0	 0.0	 0.0	 0.0;
	301	 5.0	 3.75	 3.75	 0.0	 1.08116	 5.0	 1	 5.0	 1.0	 0.0	 0.0	 0.0	 0.0	 0.0	 0.0	 0.0	 0.0	 0.0	 0.0	 0.0;
	302	 5.0	 3.75	 3.75	 0.0	 1.08116	 5.0	 1	 5.0	 1.0	 0.0	 0.0	 0.0	 0.0	 0.0	 0.0	 0.0	 0.0	 0.0	 0.0	 0.0;
	316	 370.0	 190.0	 190.0	 -19.0	 1.00661	 426.0	 1	 370.0	 240.0	 0.0	 0.0	 0.0	 0.0	 0.0	 0.0	 0.0	 0.0	 0.0	 0.0	 0.0;
	322	 0.0	 0.0	 2.0	 0.0	 1.07221	 4.0	 0	 6.0	 1.0	 0.0	 0.0	 0.0	 0.0	 0.0	 0.0	 0.0	 0.0	 0.0	 0.0	 0.0;
	322	 0.0	 0.0	 2.0	 0.0	 1.07221	 4.0	 0	 6.0	 1.0	 0.0	 0.0	 0.0	 0.0	 0.0	 0.0	 0.0	 0.0	 0.0	 0.0	 0.0;
	369	 30.0	 4.0	 4.0	 0.0	 1.10102	 30.0	 1	 30.0	 0.0	 0.0	 0.0	 0.0	 0.0	 0.0	 0.0	 0.0	 0.0	 0.0	 0.0	 0.0;
	398	 0.0	 0.0	 5.0	 0.0	 1.09667	 8.0	 0	 7.0	 5.0	 0.0	 0.0	 0.0	 0.0	 0.0	 0.0	 0.0	 0.0	 0.0	 0.0	 0.0;
	402	 1.0	 1.0	 1.0	 0.0	 1.11288	 1.0	 1	 1.0	 0.0	 0.0	 0.0	 0.0	 0.0	 0.0	 0.0	 0.0	 0.0	 0.0	 0.0	 0.0;
	402	 1.0	 1.0	 1.0	 0.0	 1.11288	 1.0	 1	 1.0	 0.0	 0.0	 0.0	 0.0	 0.0	 0.0	 0.0	 0.0	 0.0	 0.0	 0.0	 0.0;
	402	 1.0	 1.0	 1.0	 0.0	 1.11288	 1.0	 1	 1.0	 0.0	 0.0	 0.0	 0.0	 0.0	 0.0	 0.0	 0.0	 0.0	 0.0	 0.0	 0.0;
	409	 0.0	 0.0	 7.0	 0.0	 1.10897	 31.0	 0	 27.0	 11.0	 0.0	 0.0	 0.0	 0.0	 0.0	 0.0	 0.0	 0.0	 0.0	 0.0	 0.0;
	409	 30.0	 7.0	 7.0	 0.0	 1.10897	 39.0	 1	 30.0	 11.0	 0.0	 0.0	 0.0	 0.0	 0.0	 0.0	 0.0	 0.0	 0.0	 0.0	 0.0;
	409	 0.0	 0.0	 6.0	 0.0	 1.10897	 41.0	 0	 30.0	 9.0	 0.0	 0.0	 0.0	 0.0	 0.0	 0.0	 0.0	 0.0	 0.0	 0.0	 0.0;
	411	 0.0	 0.0	 15.0	 0.0	 1.10737	 69.0	 0	 55.0	 20.0	 0.0	 0.0	 0.0	 0.0	 0.0	 0.0	 0.0	 0.0	 0.0	 0.0	 0.0;
	411	 55.0	 15.0	 15.0	 0.0	 1.10737	 69.0	 1	 55.0	 20.0	 0.0	 0.0	 0.0	 0.0	 0.0	 0.0	 0.0	 0.0	 0.0	 0.0	 0.0;
	412	 0.0	 0.0	 15.0	 0.0	 1.1055	 49.0	 0	 40.0	 10.0	 0.0	 0.0	 0.0	 0.0	 0.0	 0.0	 0.0	 0.0	 0.0	 0.0	 0.0;
	412	 0.0	 0.0	 15.0	 0.0	 1.1055	 69.0	 0	 55.0	 20.0	 0.0	 0.0	 0.0	 0.0	 0.0	 0.0	 0.0	 0.0	 0.0	 0.0	 0.0;
	414	 0.0	 0.0	 20.0	 0.0	 1.10327	 69.0	 0	 50.0	 25.0	 0.0	 0.0	 0.0	 0.0	 0.0	 0.0	 0.0	 0.0	 0.0	 0.0	 0.0;
	414	 0.0	 0.0	 20.0	 0.0	 1.10327	 147.0	 0	 100.0	 55.0	 0.0	 0.0	 0.0	 0.0	 0.0	 0.0	 0.0	 0.0	 0.0	 0.0	 0.0;
	415	 60.0	 40.0	 40.0	 0.0	 1.11855	 69.0	 1	 60.0	 25.0	 0.0	 0.0	 0.0	 0.0	 0.0	 0.0	 0.0	 0.0	 0.0	 0.0	 0.0;
	428	 3.0	 3.0	 3.0	 0.0	 1.10154	 4.0	 1	 3.0	 2.0	 0.0	 0.0	 0.0	 0.0	 0.0	 0.0	 0.0	 0.0	 0.0	 0.0	 0.0;
	466	 0.0	 0.0	 1.0	 0.0	 1.07829	 2.0	 0	 2.0	 1.0	 0.0	 0.0	 0.0	 0.0	 0.0	 0.0	 0.0	 0.0	 0.0	 0.0	 0.0;
	492	 52.0	 19.007	 57.0	 -22.0	 1.11649	 69.0	 1	 52.0	 15.0	 0.0	 0.0	 0.0	 0.0	 0.0	 0.0	 0.0	 0.0	 0.0	 0.0	 0.0;
	493	 55.0	 16.812	 57.0	 -22.0	 1.11605	 69.0	 1	 55.0	 15.0	 0.0	 0.0	 0.0	 0.0	 0.0	 0.0	 0.0	 0.0	 0.0	 0.0	 0.0;
	494	 55.0	 7.748	 57.0	 -22.0	 1.12	 69.0	 1	 55.0	 15.0	 0.0	 0.0	 0.0	 0.0	 0.0	 0.0	 0.0	 0.0	 0.0	 0.0	 0.0;
	494	 55.0	 7.748	 57.0	 -22.0	 1.12	 69.0	 1	 55.0	 15.0	 0.0	 0.0	 0.0	 0.0	 0.0	 0.0	 0.0	 0.0	 0.0	 0.0	 0.0;
	495	 55.0	 14.005	 57.0	 -22.0	 1.11923	 69.0	 1	 55.0	 15.0	 0.0	 0.0	 0.0	 0.0	 0.0	 0.0	 0.0	 0.0	 0.0	 0.0	 0.0;
	495	 77.0	 16.036	 71.0	 -28.0	 1.11923	 88.0	 1	 77.0	 3.0	 0.0	 0.0	 0.0	 0.0	 0.0	 0.0	 0.0	 0.0	 0.0	 0.0	 0.0;
	517	 180.37	 10.508	 162.0	 -61.0	 1.0933	 235.0	 1	 226.0	 120.0	 0.0	 0.0	 0.0	 0.0	 0.0	 0.0	 0.0	 0.0	 0.0	 0.0	 0.0;
	517	 0.0	 0.0	 12.0	 0.0	 1.0933	 49.0	 0	 25.0	 12.0	 0.0	 0.0	 0.0	 0.0	 0.0	 0.0	 0.0	 0.0	 0.0	 0.0	 0.0;
	518	 17.0	 0.0	 12.0	 0.0	 1.10048	 49.0	 1	 17.0	 10.0	 0.0	 0.0	 0.0	 0.0	 0.0	 0.0	 0.0	 0.0	 0.0	 0.0	 0.0;
	522	 0.0	 0.0	 2.0	 0.0	 1.09494	 6.0	 0	 4.0	 4.0	 0.0	 0.0	 0.0	 0.0	 0.0	 0.0	 0.0	 0.0	 0.0	 0.0	 0.0;
	542	 0.0	 0.2	 0.2	 0.0	 1.10011	 0.0	 1	 0.0	 0.0	 0.0	 0.0	 0.0	 0.0	 0.0	 0.0	 0.0	 0.0	 0.0	 0.0	 0.0;
	571	 0.0	 0.0	 4.0	 0.0	 1.09301	 8.0	 0	 7.0	 3.0	 0.0	 0.0	 0.0	 0.0	 0.0	 0.0	 0.0	 0.0	 0.0	 0.0	 0.0;
	580	 0.0	 0.0	 3.0	 0.0	 1.11214	 5.0	 0	 3.0	 3.0	 0.0	 0.0	 0.0	 0.0	 0.0	 0.0	 0.0	 0.0	 0.0	 0.0	 0.0;
	587	 7.0	 4.7	 4.7	 3.8	 1.10571	 7.0	 1	 7.0	 1.0	 0.0	 0.0	 0.0	 0.0	 0.0	 0.0	 0.0	 0.0	 0.0	 0.0	 0.0;
	587	 7.0	 4.7	 4.7	 3.8	 1.10571	 7.0	 1	 7.0	 1.0	 0.0	 0.0	 0.0	 0.0	 0.0	 0.0	 0.0	 0.0	 0.0	 0.0	 0.0;
	587	 0.0	 0.0	 4.7	 3.8	 1.10571	 7.0	 0	 7.0	 1.0	 0.0	 0.0	 0.0	 0.0	 0.0	 0.0	 0.0	 0.0	 0.0	 0.0	 0.0;
	599	 3.0	 2.0	 2.0	 0.0	 1.05681	 4.0	 1	 3.0	 2.0	 0.0	 0.0	 0.0	 0.0	 0.0	 0.0	 0.0	 0.0	 0.0	 0.0	 0.0;
	633	 0.0	 0.0	 2.0	 0.0	 1.05892	 5.0	 0	 4.0	 3.0	 0.0	 0.0	 0.0	 0.0	 0.0	 0.0	 0.0	 0.0	 0.0	 0.0	 0.0;
	663	 2.0	 0.7	 0.7	 0.0	 1.07929	 2.0	 1	 2.0	 1.0	 0.0	 0.0	 0.0	 0.0	 0.0	 0.0	 0.0	 0.0	 0.0	 0.0	 0.0;
	663	 0.0	 0.0	 0.7	 0.0	 1.07929	 2.0	 0	 2.0	 1.0	 0.0	 0.0	 0.0	 0.0	 0.0	 0.0	 0.0	 0.0	 0.0	 0.0	 0.0;
	669	 0.0	 0.0	 3.0	 0.0	 1.10013	 6.0	 0	 4.0	 3.0	 0.0	 0.0	 0.0	 0.0	 0.0	 0.0	 0.0	 0.0	 0.0	 0.0	 0.0;
	740	 52.0	 2.0	 35.0	 2.0	 1.08877	 63.0	 1	 52.0	 37.0	 0.0	 0.0	 0.0	 0.0	 0.0	 0.0	 0.0	 0.0	 0.0	 0.0	 0.0;
	740	 0.0	 0.0	 23.0	 2.0	 1.08877	 38.0	 0	 30.0	 10.0	 0.0	 0.0	 0.0	 0.0	 0.0	 0.0	 0.0	 0.0	 0.0	 0.0	 0.0;
	740	 0.0	 0.0	 85.0	 6.0	 1.08877	 150.0	 0	 105.0	 50.0	 0.0	 0.0	 0.0	 0.0	 0.0	 0.0	 0.0	 0.0	 0.0	 0.0	 0.0;
	740	 105.0	 6.0	 85.0	 6.0	 1.08877	 150.0	 1	 105.0	 50.0	 0.0	 0.0	 0.0	 0.0	 0.0	 0.0	 0.0	 0.0	 0.0	 0.0	 0.0;
	741	 0.0	 0.0	 23.0	 2.0	 1.11001	 38.0	 0	 30.0	 10.0	 0.0	 0.0	 0.0	 0.0	 0.0	 0.0	 0.0	 0.0	 0.0	 0.0	 0.0;
	741	 0.0	 0.0	 23.0	 2.0	 1.11001	 38.0	 0	 30.0	 10.0	 0.0	 0.0	 0.0	 0.0	 0.0	 0.0	 0.0	 0.0	 0.0	 0.0	 0.0;
	741	 30.0	 16.97	 25.0	 2.0	 1.11001	 38.0	 1	 30.0	 10.0	 0.0	 0.0	 0.0	 0.0	 0.0	 0.0	 0.0	 0.0	 0.0	 0.0	 0.0;
	741	 125.0	 71.309	 85.0	 6.0	 1.11001	 150.0	 1	 125.0	 68.0	 0.0	 0.0	 0.0	 0.0	 0.0	 0.0	 0.0	 0.0	 0.0	 0.0	 0.0;
	741	 0.0	 0.0	 85.0	 6.0	 1.11001	 150.0	 0	 105.0	 50.0	 0.0	 0.0	 0.0	 0.0	 0.0	 0.0	 0.0	 0.0	 0.0	 0.0	 0.0;
	762	 2.0	 0.0	 0.7	 0.0	 1.08229	 2.0	 1	 2.0	 1.0	 0.0	 0.0	 0.0	 0.0	 0.0	 0.0	 0.0	 0.0	 0.0	 0.0	 0.0;
	764	 1.0	 1.0	 1.0	 0.0	 1.07044	 4.0	 1	 1.0	 0.0	 0.0	 0.0	 0.0	 0.0	 0.0	 0.0	 0.0	 0.0	 0.0	 0.0	 0.0;
	772	 0.0	 0.0	 18.0	 2.0	 1.09127	 38.0	 0	 35.0	 9.0	 0.0	 0.0	 0.0	 0.0	 0.0	 0.0	 0.0	 0.0	 0.0	 0.0	 0.0;
	772	 20.0	 2.0	 30.0	 2.0	 1.09127	 38.0	 1	 20.0	 9.0	 0.0	 0.0	 0.0	 0.0	 0.0	 0.0	 0.0	 0.0	 0.0	 0.0	 0.0;
	773	 0.0	 0.0	 18.0	 2.0	 1.09848	 38.0	 0	 35.0	 9.0	 0.0	 0.0	 0.0	 0.0	 0.0	 0.0	 0.0	 0.0	 0.0	 0.0	 0.0;
	773	 0.0	 0.0	 18.0	 2.0	 1.09848	 38.0	 0	 35.0	 9.0	 0.0	 0.0	 0.0	 0.0	 0.0	 0.0	 0.0	 0.0	 0.0	 0.0	 0.0;
	773	 0.0	 0.0	 18.0	 2.0	 1.09848	 38.0	 0	 35.0	 9.0	 0.0	 0.0	 0.0	 0.0	 0.0	 0.0	 0.0	 0.0	 0.0	 0.0	 0.0;
	773	 97.0	 65.0	 65.0	 6.0	 1.09848	 121.0	 1	 97.0	 30.0	 0.0	 0.0	 0.0	 0.0	 0.0	 0.0	 0.0	 0.0	 0.0	 0.0	 0.0;
	774	 0.0	 0.0	 18.0	 2.0	 1.09155	 38.0	 0	 35.0	 9.0	 0.0	 0.0	 0.0	 0.0	 0.0	 0.0	 0.0	 0.0	 0.0	 0.0	 0.0;
	774	 0.0	 0.0	 18.0	 2.0	 1.09155	 38.0	 0	 30.0	 9.0	 0.0	 0.0	 0.0	 0.0	 0.0	 0.0	 0.0	 0.0	 0.0	 0.0	 0.0;
	774	 0.0	 0.0	 14.0	 2.0	 1.09155	 32.0	 0	 28.0	 9.0	 0.0	 0.0	 0.0	 0.0	 0.0	 0.0	 0.0	 0.0	 0.0	 0.0	 0.0;
	809	 8.0	 4.0	 4.0	 0.0	 1.09446	 5.0	 1	 8.0	 1.0	 0.0	 0.0	 0.0	 0.0	 0.0	 0.0	 0.0	 0.0	 0.0	 0.0	 0.0;
	809	 0.0	 0.0	 2.0	 0.0	 1.09446	 2.0	 0	 2.0	 1.0	 0.0	 0.0	 0.0	 0.0	 0.0	 0.0	 0.0	 0.0	 0.0	 0.0	 0.0;
	829	 0.0	 0.0	 4.5	 0.2	 1.0907	 6.0	 0	 4.0	 4.0	 0.0	 0.0	 0.0	 0.0	 0.0	 0.0	 0.0	 0.0	 0.0	 0.0	 0.0;
	844	 3.0	 0.0	 0.0	 0.0	 1.08579	 6.0	 1	 3.0	 0.0	 0.0	 0.0	 0.0	 0.0	 0.0	 0.0	 0.0	 0.0	 0.0	 0.0	 0.0;
	853	 0.0	 0.0	 0.0	 0.0	 1.07779	 4.0	 0	 5.0	 0.0	 0.0	 0.0	 0.0	 0.0	 0.0	 0.0	 0.0	 0.0	 0.0	 0.0	 0.0;
	876	 93.0	 12.39	 30.0	 0.0	 1.09751	 65.0	 1	 93.0	 0.0	 0.0	 0.0	 0.0	 0.0	 0.0	 0.0	 0.0	 0.0	 0.0	 0.0	 0.0;
	876	 36.0	 12.39	 30.0	 0.0	 1.09751	 65.0	 1	 36.0	 0.0	 0.0	 0.0	 0.0	 0.0	 0.0	 0.0	 0.0	 0.0	 0.0	 0.0	 0.0;
	879	 0.0	 0.0	 0.0	 0.0	 1.05834	 12.0	 0	 3.0	 0.0	 0.0	 0.0	 0.0	 0.0	 0.0	 0.0	 0.0	 0.0	 0.0	 0.0	 0.0;
	886	 0.0	 0.0	 0.0	 0.0	 1.09825	 5.0	 0	 6.0	 0.0	 0.0	 0.0	 0.0	 0.0	 0.0	 0.0	 0.0	 0.0	 0.0	 0.0	 0.0;
	887	 0.0	 0.0	 0.0	 0.0	 1.09828	 6.0	 0	 6.0	 0.0	 0.0	 0.0	 0.0	 0.0	 0.0	 0.0	 0.0	 0.0	 0.0	 0.0	 0.0;
	922	 135.0	 109.007	 149.0	 -33.0	 1.12	 235.0	 1	 225.0	 135.0	 0.0	 0.0	 0.0	 0.0	 0.0	 0.0	 0.0	 0.0	 0.0	 0.0	 0.0;
	923	 0.0	 0.0	 149.0	 -33.0	 1.1196	 235.0	 0	 225.0	 110.0	 0.0	 0.0	 0.0	 0.0	 0.0	 0.0	 0.0	 0.0	 0.0	 0.0	 0.0;
	931	 0.0	 0.0	 0.0	 0.0	 1.0626	 3.0	 0	 3.0	 0.0	 0.0	 0.0	 0.0	 0.0	 0.0	 0.0	 0.0	 0.0	 0.0	 0.0	 0.0;
	937	 0.0	 0.0	 0.0	 0.0	 1.09521	 12.0	 0	 12.0	 0.0	 0.0	 0.0	 0.0	 0.0	 0.0	 0.0	 0.0	 0.0	 0.0	 0.0	 0.0;
	947	 0.0	 0.0	 30.0	 0.0	 1.09171	 168.0	 0	 170.0	 66.0	 0.0	 0.0	 0.0	 0.0	 0.0	 0.0	 0.0	 0.0	 0.0	 0.0	 0.0;
	947	 0.0	 0.0	 30.0	 0.0	 1.09171	 72.0	 0	 61.0	 34.0	 0.0	 0.0	 0.0	 0.0	 0.0	 0.0	 0.0	 0.0	 0.0	 0.0	 0.0;
	953	 0.0	 0.0	 0.0	 0.0	 1.09335	 8.0	 0	 21.0	 0.0	 0.0	 0.0	 0.0	 0.0	 0.0	 0.0	 0.0	 0.0	 0.0	 0.0	 0.0;
	967	 0.0	 0.0	 0.0	 0.0	 1.08929	 6.0	 0	 7.0	 0.0	 0.0	 0.0	 0.0	 0.0	 0.0	 0.0	 0.0	 0.0	 0.0	 0.0	 0.0;
	970	 0.0	 0.0	 0.0	 0.0	 1.08416	 3.0	 0	 10.0	 0.0	 0.0	 0.0	 0.0	 0.0	 0.0	 0.0	 0.0	 0.0	 0.0	 0.0	 0.0;
	985	 30.0	 0.0	 0.0	 0.0	 1.07889	 3.0	 1	 30.0	 0.0	 0.0	 0.0	 0.0	 0.0	 0.0	 0.0	 0.0	 0.0	 0.0	 0.0	 0.0;
	990	 2.0	 0.0	 0.0	 0.0	 1.05825	 1.0	 1	 2.0	 0.0	 0.0	 0.0	 0.0	 0.0	 0.0	 0.0	 0.0	 0.0	 0.0	 0.0	 0.0;
	995	 0.0	 0.0	 0.0	 0.0	 1.07818	 1.0	 0	 2.0	 0.0	 0.0	 0.0	 0.0	 0.0	 0.0	 0.0	 0.0	 0.0	 0.0	 0.0	 0.0;
	1006	 0.0	 0.0	 0.0	 0.0	 1.07561	 2.0	 0	 2.0	 1.0	 0.0	 0.0	 0.0	 0.0	 0.0	 0.0	 0.0	 0.0	 0.0	 0.0	 0.0;
	1011	 129.0	 -2.879	 120.0	 -14.0	 1.08699	 235.0	 1	 225.0	 129.0	 0.0	 0.0	 0.0	 0.0	 0.0	 0.0	 0.0	 0.0	 0.0	 0.0	 0.0;
	1013	 0.0	 0.0	 30.0	 0.0	 1.07541	 37.0	 0	 36.0	 0.0	 0.0	 0.0	 0.0	 0.0	 0.0	 0.0	 0.0	 0.0	 0.0	 0.0	 0.0;
	1016	 0.0	 0.0	 0.0	 0.0	 1.09913	 3.0	 0	 3.0	 2.0	 0.0	 0.0	 0.0	 0.0	 0.0	 0.0	 0.0	 0.0	 0.0	 0.0	 0.0;
	1036	 0.0	 0.0	 30.0	 0.0	 1.07372	 101.0	 0	 101.0	 49.0	 0.0	 0.0	 0.0	 0.0	 0.0	 0.0	 0.0	 0.0	 0.0	 0.0	 0.0;
	1042	 0.0	 0.0	 0.0	 0.0	 1.06097	 2.0	 0	 12.0	 0.0	 0.0	 0.0	 0.0	 0.0	 0.0	 0.0	 0.0	 0.0	 0.0	 0.0	 0.0;
	1057	 12.0	 0.0	 30.0	 0.0	 1.07228	 10.0	 1	 12.0	 0.0	 0.0	 0.0	 0.0	 0.0	 0.0	 0.0	 0.0	 0.0	 0.0	 0.0	 0.0;
	1060	 0.0	 0.0	 0.0	 0.0	 1.09744	 2.0	 0	 2.0	 1.0	 0.0	 0.0	 0.0	 0.0	 0.0	 0.0	 0.0	 0.0	 0.0	 0.0	 0.0;
	1062	 0.0	 0.0	 0.0	 0.0	 1.09171	 6.0	 0	 6.0	 1.0	 0.0	 0.0	 0.0	 0.0	 0.0	 0.0	 0.0	 0.0	 0.0	 0.0	 0.0;
	1067	 8.0	 0.0	 0.0	 0.0	 1.0759	 11.0	 1	 8.0	 0.0	 0.0	 0.0	 0.0	 0.0	 0.0	 0.0	 0.0	 0.0	 0.0	 0.0	 0.0;
	1071	 0.0	 0.0	 23.0	 0.0	 1.08328	 52.0	 0	 68.0	 5.0	 0.0	 0.0	 0.0	 0.0	 0.0	 0.0	 0.0	 0.0	 0.0	 0.0	 0.0;
	1071	 68.0	 2.844	 23.0	 0.0	 1.08328	 52.0	 1	 68.0	 5.0	 0.0	 0.0	 0.0	 0.0	 0.0	 0.0	 0.0	 0.0	 0.0	 0.0	 0.0;
	1071	 0.0	 0.0	 11.0	 0.0	 1.08328	 25.0	 0	 31.0	 -32.0	 0.0	 0.0	 0.0	 0.0	 0.0	 0.0	 0.0	 0.0	 0.0	 0.0	 0.0;
	1071	 0.0	 0.0	 10.0	 0.0	 1.08328	 25.0	 0	 31.0	 -32.0	 0.0	 0.0	 0.0	 0.0	 0.0	 0.0	 0.0	 0.0	 0.0	 0.0	 0.0;
	1086	 0.0	 0.0	 24.0	 -1.0	 1.09421	 69.0	 0	 50.0	 8.0	 0.0	 0.0	 0.0	 0.0	 0.0	 0.0	 0.0	 0.0	 0.0	 0.0	 0.0;
	1086	 92.0	 28.657	 74.0	 -15.0	 1.09421	 58.0	 1	 125.0	 92.0	 0.0	 0.0	 0.0	 0.0	 0.0	 0.0	 0.0	 0.0	 0.0	 0.0	 0.0;
	1087	 85.0	 36.742	 74.0	 -15.0	 1.08456	 58.0	 1	 125.0	 85.0	 0.0	 0.0	 0.0	 0.0	 0.0	 0.0	 0.0	 0.0	 0.0	 0.0	 0.0;
	1087	 0.0	 0.0	 28.0	 -2.0	 1.08456	 40.0	 0	 41.0	 12.0	 0.0	 0.0	 0.0	 0.0	 0.0	 0.0	 0.0	 0.0	 0.0	 0.0	 0.0;
	1099	 0.0	 0.0	 0.0	 0.0	 1.10001	 3.0	 0	 3.0	 0.0	 0.0	 0.0	 0.0	 0.0	 0.0	 0.0	 0.0	 0.0	 0.0	 0.0	 0.0;
	1126	 0.0	 0.0	 0.0	 0.0	 1.07407	 4.0	 0	 3.0	 2.0	 0.0	 0.0	 0.0	 0.0	 0.0	 0.0	 0.0	 0.0	 0.0	 0.0	 0.0;
	1132	 31.0	 0.0	 0.0	 0.0	 1.07944	 31.0	 1	 31.0	 0.0	 0.0	 0.0	 0.0	 0.0	 0.0	 0.0	 0.0	 0.0	 0.0	 0.0	 0.0;
...
];

%% generator cost data
%	2	startup	shutdown	n	c(n-1)	...	c0
mpc.gencost = [
	2	 0.0	 0.0	 3	   0.000000	 158.610000	   0.000000;
	2	 0.0	 0.0	 3	   0.000000	 158.610000	   0.000000;
	2	 0.0	 0.0	 3	   0.000000	 107.030000	   0.000000;
	2	 0.0	 0.0	 3	   0.000000	 107.030000	   0.000000;
	2	 0.0	 0.0	 3	   0.000000	 107.030000	   0.000000;
	2	 0.0	 0.0	 3	   0.000000	 107.030000	   0.000000;
	2	 0.0	 0.0	 3	   0.000000	 107.030000	   0.000000;
	2	 0.0	 0.0	 3	   0.000000	 107.030000	   0.000000;
	2	 0.0	 0.0	 3	   0.000000	 107.030000	   0.000000;
	2	 0.0	 0.0	 3	   0.000000	 107.030000	   0.000000;
	2	 0.0	 0.0	 3	   0.000000	 107.030000	   0.000000;
	2	 0.0	 0.0	 3	   0.000000	 107.030000	   0.000000;
	2	 0.0	 0.0	 3	   0.000000	 107.030000	   0.000000;
	2	 0.0	 0.0	 3	   0.000000	 143.520000	   0.000000;
	2	 0.0	 0.0	 3	   0.000000	 143.520000	   0.000000;
	2	 0.0	 0.0	 3	   0.000000	 143.520000	   0.000000;
	2	 0.0	 0.0	 3	   0.000000	 143.520000	   0.000000;
	2	 0.0	 0.0	 3	   0.000000	 143.520000	   0.000000;
	2	 0.0	 0.0	 3	   0.000000	 143.520000	   0.000000;
	2	 0.0	 0.0	 3	   0.000000	 143.520000	   0.000000;
	2	 0.0	 0.0	 3	   0.000000	 143.520000	   0.000000;
	2	 0.0	 0.0	 3	   0.000000	 148.160000	   0.000000;
	2	 0.0	 0.0	 3	   0.000000	 148.160000	   0.000000;
	2	 0.0	 0.0	 3	   0.000000	 148.160000	   0.000000;
	2	 0.0	 0.0	 3	   0.000000	 148.160000	   0.000000;
	2	 0.0	 0.0	 3	   0.000000	 148.160000	   0.000000;
	2	 0.0	 0.0	 3	   0.000000	 148.160000	   0.000000;
	2	 0.0	 0.0	 3	   0.000000	 148.160000	   0.000000;
	2	 0.0	 0.0	 3	   0.000000	 134.040000	   0.000000;
	2	 0.0	 0.0	 3	   0.000000	 134.040000	   0.000000;
	2	 0.0	 0.0	 3	   0.000000	 134.040000	   0.000000;
	2	 0.0	 0.0	 3	   0.000000	 134.040000	   0.000000;
	2	 0.0	 0.0	 3	   0.000000	 134.040000	   0.000000;
	2	 0.0	 0.0	 3	   0.000000	 126.620000	   0.000000;
	2	 0.0	 0.0	 3	   0.000000	 126.620000	   0.000000;
	2	 0.0	 0.0	 3	   0.000000	   0.000000	   0.000000;
	2	 0.0	 0.0	 3	   0.000000	   0.000000	   0.000000;
	2	 0.0	 0.0	 3	   0.000000	   0.000000	   0.000000;
	2	 0.0	 0.0	 3	   0.000000	 130.490000	   0.000000;
	2	 0.0	 0.0	 3	   0.000000	 130.490000	   0.000000;
	2	 0.0	 0.0	 3	   0.000000	 132.330000	   0.000000;
	2	 0.0	 0.0	 3	   0.000000	 132.330000	   0.000000;
	2	 0.0	 0.0	 3	   0.000000	 136.590000	   0.000000;
	2	 0.0	 0.0	 3	   0.000000	 136.590000	   0.000000;
	2	 0.0	 0.0	 3	   0.000000	 139.960000	   0.000000;
	2	 0.0	 0.0	 3	   0.000000	 128.210000	   0.000000;
	2	 0.0	 0.0	 3	   0.000000	 128.210000	   0.000000;
	2	 0.0	 0.0	 3	   0.000000	 128.210000	   0.000000;
	2	 0.0	 0.0	 3	   0.000000	 128.210000	   0.000000;
	2	 0.0	 0.0	 3	   0.000000	 128.210000	   0.000000;
	2	 0.0	 0.0	 3	   0.000000	 137.400000	   0.000000;
	2	 0.0	 0.0	 3	   0.000000	 137.400000	   0.000000;
	2	 0.0	 0.0	 3	   0.000000	 137.400000	   0.000000;
	2	 0.0	 0.0	 3	   0.000000	 137.400000	   0.000000;
	2	 0.0	 0.0	 3	   0.000000	 129.990000	   0.000000;
	2	 0.0	 0.0	 3	   0.000000	 129.990000	   0.000000;
	2	 0.0	 0.0	 3	   0.000000	 129.990000	   0.000000;
	2	 0.0	 0.0	 3	   0.000000	 135.600000	   0.000000;
	2	 0.0	 0.0	 3	   0.000000	 163.160000	   0.000000;
	2	 0.0	 0.0	 3	   0.000000	 163.160000	   0.000000;
	2	 0.0	 0.0	 3	   0.000000	 163.160000	   0.000000;
	2	 0.0	 0.0	 3	   0.000000	 163.160000	   0.000000;
	2	 0.0	 0.0	 3	   0.000000	 163.160000	   0.000000;
	2	 0.0	 0.0	 3	   0.000000	 163.160000	   0.000000;
	2	 0.0	 0.0	 3	   0.000000	 163.160000	   0.000000;
	2	 0.0	 0.0	 3	   0.000000	 139.010000	   0.000000;
	2	 0.0	 0.0	 3	   0.000000	 139.010000	   0.000000;
	2	 0.0	 0.0	 3	   0.000000	 139.010000	   0.000000;
	2	 0.0	 0.0	 3	   0.000000	 139.010000	   0.000000;
	2	 0.0	 0.0	 3	   0.000000	 139.010000	   0.000000;
	2	 0.0	 0.0	 3	   0.000000	 139.010000	   0.000000;
	2	 0.0	 0.0	 3	   0.000000	 139.010000	   0.000000;
	2	 0.0	 0.0	 3	   0.000000	 139.010000	   0.000000;
	2	 0.0	 0.0	 3	   0.000000	 125.480000	   0.000000;
	2	 0.0	 0.0	 3	   0.000000	 125.480000	   0.000000;
	2	 0.0	 0.0	 3	   0.000000	 125.480000	   0.000000;
	2	 0.0	 0.0	 3	   0.000000	 125.480000	   0.000000;
	2	 0.0	 0.0	 3	   0.000000	 125.480000	   0.000000;
	2	 0.0	 0.0	 3	   0.000000	 137.400000	   0.000000;
	2	 0.0	 0.0	 3	   0.000000	 137.400000	   0.000000;
	2	 0.0	 0.0	 3	   0.000000	 137.400000	   0.000000;
	2	 0.0	 0.0	 3	   0.000000	 137.400000	   0.000000;
	2	 0.0	 0.0	 3	   0.000000	 137.400000	   0.000000;
	2	 0.0	 0.0	 3	   0.000000	   0.000000	   0.000000;
	2	 0.0	 0.0	 3	   0.000000	   0.000000	   0.000000;
	2	 0.0	 0.0	 3	   0.000000	   0.000000	   0.000000;
	2	 0.0	 0.0	 3	   0.000000	   0.000000	   0.000000;
	2	 0.0	 0.0	 3	   0.000000	   0.000000	   0.000000;
	2	 0.0	 0.0	 3	   0.000000	   0.000000	   0.000000;
	2	 0.0	 0.0	 3	   0.000000	   0.000000	   0.000000;
	2	 0.0	 0.0	 3	   0.000000	   0.000000	   0.000000;
	2	 0.0	 0.0	 3	   0.000000	   0.000000	   0.000000;
	2	 0.0	 0.0	 3	   0.000000	   0.000000	   0.000000;
	2	 0.0	 0.0	 3	   0.000000	   0.000000	   0.000000;
	2	 0.0	 0.0	 3	   0.000000	   0.000000	   0.000000;
	2	 0.0	 0.0	 3	   0.000000	   0.000000	   0.000000;
	2	 0.0	 0.0	 3	   0.000000	 107.030000	   0.000000;
	2	 0.0	 0.0	 3	   0.000000	   0.000000	   0.000000;
	2	 0.0	 0.0	 3	   0.000000	   0.000000	   0.000000;
	2	 0.0	 0.0	 3	   0.000000	   0.000000	   0.000000;
	2	 0.0	 0.0	 3	   0.000000	   0.000000	   0.000000;
	2	 0.0	 0.0	 3	   0.000000	   0.000000	   0.000000;
	2	 0.0	 0.0	 3	   0.000000	   0.000000	   0.000000;
	2	 0.0	 0.0	 3	   0.000000	   0.000000	   0.000000;
	2	 0.0	 0.0	 3	   0.000000	   0.000000	   0.000000;
	2	 0.0	 0.0	 3	   0.000000	   0.000000	   0.000000;
	2	 0.0	 0.0	 3	   0.000000	   0.000000	   0.000000;
	2	 0.0	 0.0	 3	   0.000000	   0.000000	   0.000000;
	2	 0.0	 0.0	 3	   0.000000	   0.000000	   0.000000;
	2	 0.0	 0.0	 3	   0.000000	   0.000000	   0.000000;
	2	 0.0	 0.0	 3	   0.000000	   0.000000	   0.000000;
	2	 0.0	 0.0	 3	   0.000000	   0.000000	   0.000000;
	2	 0.0	 0.0	 3	   0.000000	   0.000000	   0.000000;
	2	 0.0	 0.0	 3	   0.000000	   0.000000	   0.000000;
	2	 0.0	 0.0	 3	   0.000000	   0.000000	   0.000000;
	2	 0.0	 0.0	 3	   0.000000	   0.000000	   0.000000;
	2	 0.0	 0.0	 3	   0.000000	   0.000000	   0.000000;
	2	 0.0	 0.0	 3	   0.000000	   0.000000	   0.000000;
	2	 0.0	 0.0	 3	   0.000000	   0.000000	   0.000000;
	2	 0.0	 0.0	 3	   0.000000	   0.000000	   0.000000;
	2	 0.0	 0.0	 3	   0.000000	   0.000000	   0.000000;
	2	 0.0	 0.0	 3	   0.000000	   0.000000	   0.000000;
	2	 0.0	 0.0	 3	   0.000000	 158.610000	   0.000000;
	2	 0.0	 0.0	 3	   0.000000	 158.610000	   0.000000;
	2	 0.0	 0.0	 3	   0.000000	 158.610000	   0.000000;
	2	 0.0	 0.0	 3	   0.000000	   0.000000	   0.000000;
	2	 0.0	 0.0	 3	   0.000000	   0.000000	   0.000000;
	2	 0.0	 0.0	 3	   0.000000	   0.000000	   0.000000;
	2	 0.0	 0.0	 3	   0.000000	   0.000000	   0.000000;
	2	 0.0	 0.0	 3	   0.000000	   0.000000	   0.000000;
	2	 0.0	 0.0	 3	   0.000000	   0.000000	   0.000000;
	2	 0.0	 0.0	 3	   0.000000	   0.000000	   0.000000;
	2	 0.0	 0.0	 3	   0.000000	   0.000000	   0.000000;
	2	 0.0	 0.0	 3	   0.000000	   0.000000	   0.000000;
	2	 0.0	 0.0	 3	   0.000000	   0.000000	   0.000000;
	2	 0.0	 0.0	 3	   0.000000	   0.000000	   0.000000;
	2	 0.0	 0.0	 3	   0.000000	   0.000000	   0.000000;
	2	 0.0	 0.0	 3	   0.000000	   0.000000	   0.000000;
	2	 0.0	 0.0	 3	   0.000000	   0.000000	   0.000000;
	2	 0.0	 0.0	 3	   0.000000	   0.000000	   0.000000;
	2	 0.0	 0.0	 3	   0.000000	   0.000000	   0.000000;
	2	 0.0	 0.0	 3	   0.000000	   0.000000	   0.000000;
	2	 0.0	 0.0	 3	   0.000000	   0.000000	   0.000000;
	2	 0.0	 0.0	 3	   0.000000	   0.000000	   0.000000;
	2	 0.0	 0.0	 3	   0.000000	   0.000000	   0.000000;
	2	 0.0	 0.0	 3	   0.000000	   0.000000	   0.000000;
	2	 0.0	 0.0	 3	   0.000000	   0.000000	   0.000000;
	2	 0.0	 0.0	 3	   0.000000	   0.000000	   0.000000;
	2	 0.0	 0.0	 3	   0.000000	   0.000000	   0.000000;
	2	 0.0	 0.0	 3	   0.000000	   0.000000	   0.000000;
	2	 0.0	 0.0	 3	   0.000000	   0.000000	   0.000000;
	2	 0.0	 0.0	 3	   0.000000	   0.000000	   0.000000;
	2	 0.0	 0.0	 3	   0.000000	   0.000000	   0.000000;
	2	 0.0	 0.0	 3	   0.000000	   0.000000	   0.000000;
	2	 0.0	 0.0	 3	   0.000000	   0.000000	   0.000000;
	2	 0.0	 0.0	 3	   0.000000	   0.000000	   0.000000;
	2	 0.0	 0.0	 3	   0.000000	   0.000000	   0.000000;
	2	 0.0	 0.0	 3	   0.000000	   0.000000	   0.000000;
	2	 0.0	 0.0	 3	   0.000000	   0.000000	   0.000000;
	2	 0.0	 0.0	 3	   0.000000	   0.000000	   0.000000;
	2	 0.0	 0.0	 3	   0.000000	   0.000000	   0.000000;
	2	 0.0	 0.0	 3	   0.000000	   0.000000	   0.000000;
	2	 0.0	 0.0	 3	   0.000000	   0.000000	   0.000000;
	2	 0.0	 0.0	 3	   0.000000	   0.000000	   0.000000;
	2	 0.0	 0.0	 3	   0.000000	   0.000000	   0.000000;
	2	 0.0	 0.0	 3	   0.000000	   0.000000	   0.000000;
	2	 0.0	 0.0	 3	   0.000000	   0.000000	   0.000000;
	2	 0.0	 0.0	 3	   0.000000	 143.520000	   0.000000;
	2	 0.0	 0.0	 3	   0.000000	 143.520000	   0.000000;
	2	 0.0	 0.0	 3	   0.000000	   0.000000	   0.000000;
	2	 0.0	 0.0	 3	   0.000000	   0.000000	   0.000000;
	2	 0.0	 0.0	 3	   0.000000	   0.000000	   0.000000;
	2	 0.0	 0.0	 3	   0.000000	   0.000000	   0.000000;
	2	 0.0	 0.0	 3	   0.000000	   0.000000	   0.000000;
	2	 0.0	 0.0	 3	   0.000000	   0.000000	   0.000000;
	2	 0.0	 0.0	 3	   0.000000	   0.000000	   0.000000;
	2	 0.0	 0.0	 3	   0.000000	   0.000000	   0.000000;
	2	 0.0	 0.0	 3	   0.000000	   0.000000	   0.000000;
	2	 0.0	 0.0	 3	   0.000000	   0.000000	   0.000000;
	2	 0.0	 0.0	 3	   0.000000	   0.000000	   0.000000;
	2	 0.0	 0.0	 3	   0.000000	 148.160000	   0.000000;
	2	 0.0	 0.0	 3	   0.000000	   0.000000	   0.000000;
	2	 0.0	 0.0	 3	   0.000000	   0.000000	   0.000000;
	2	 0.0	 0.0	 3	   0.000000	   0.000000	   0.000000;
	2	 0.0	 0.0	 3	   0.000000	   0.000000	   0.000000;
	2	 0.0	 0.0	 3	   0.000000	   0.000000	   0.000000;
	2	 0.0	 0.0	 3	   0.000000	   0.000000	   0.000000;
	2	 0.0	 0.0	 3	   0.000000	   0.000000	   0.000000;
	2	 0.0	 0.0	 3	   0.000000	   0.000000	   0.000000;
	2	 0.0	 0.0	 3	   0.000000	   0.000000	   0.000000;
	2	 0.0	 0.0	 3	   0.000000	   0.000000	   0.000000;
	2	 0.0	 0.0	 3	   0.000000	   0.000000	   0.000000;
	2	 0.0	 0.0	 3	   0.000000	   0.000000	   0.000000;
	2	 0.0	 0.0	 3	   0.000000	 157.000000	   0.000000;
	2	 0.0	 0.0	 3	   0.000000	 157.000000	   0.000000;
	2	 0.0	 0.0	 3	   0.000000	 157.000000	   0.000000;
	2	 0.0	 0.0	 3	   0.000000	 157.000000	   0.000000;
	2	 0.0	 0.0	 3	   0.000000	   0.000000	   0.000000;
	2	 0.0	 0.0	 3	   0.000000	   0.000000	   0.000000;
	2	 0.0	 0.0	 3	   0.000000	   0.000000	   0.000000;
...
];

%% branch data
%	fbus	tbus	r	x	b	rateA	rateB	rateC	ratio	angle	status	angmin	angmax
mpc.branch = [
	9	 11	 0.00064	 0.0305	 0.0	 400.0	 400.0	 400.0	 1.09271	 0.0	 1	 -8.766897	 8.766897;
	13	 12	 0.00069	 0.03946	 0.0	 250.0	 250.0	 250.0	 0.9999	 0.0	 1	 -8.766897	 8.766897;
	20	 18	 0.00088	 0.05709	 0.0	 330.0	 330.0	 330.0	 0.9999	 0.0	 1	 -8.766897	 8.766897;
	34	 33	 0.0007	 0.03652	 0.0	 250.0	 250.0	 250.0	 0.9999	 0.0	 1	 -8.766897	 8.766897;
	35	 37	 0.00036	 0.02519	 0.0	 500.0	 500.0	 500.0	 1.07313	 0.0	 1	 -8.766897	 8.766897;
	36	 38	 0.00036	 0.02519	 0.0	 500.0	 500.0	 500.0	 1.07313	 0.0	 1	 -8.766897	 8.766897;
	53	 54	 0.00034	 0.02097	 0.0	 500.0	 500.0	 500.0	 1.0755	 0.0	 1	 -8.766897	 8.766897;
	57	 59	 0.00034	 0.02097	 0.0	 500.0	 500.0	 500.0	 1.07313	 0.0	 1	 -8.766897	 8.766897;
	68	 70	 0.00081	 0.03	 0.0	 400.0	 400.0	 400.0	 1.10102	 0.0	 1	 -8.766897	 8.766897;
	105	 107	 0.00075	 0.02445	 -0.00832	 330.0	 330.0	 330.0	 1.039	 0.0	 1	 -8.766897	 8.766897;
	106	 108	 0.0004	 0.0253	 0.0	 500.0	 500.0	 500.0	 1.0457	 0.0	 1	 -8.766897	 8.766897;
	142	 145	 0.00053	 0.02875	 -0.016	 400.0	 400.0	 400.0	 1.06299	 0.0	 1	 -8.766897	 8.766897;
	170	 171	 0.00064	 0.0305	 0.0	 400.0	 400.0	 400.0	 1.07408	 0.0	 1	 -8.766897	 8.766897;
	177	 180	 0.00023	 0.023	 0.0	 500.0	 500.0	 500.0	 1.07426	 0.0	 1	 -8.766897	 8.766897;
	178	 181	 0.00023	 0.023	 0.0	 500.0	 500.0	 500.0	 1.07426	 0.0	 1	 -8.766897	 8.766897;
	185	 184	 0.00032	 0.04392	 0.0	 330.0	 330.0	 330.0	 0.9999	 0.0	 1	 -8.766897	 8.766897;
	188	 190	 0.0003	 0.02732	 0.0	 500.0	 500.0	 500.0	 1.10037	 0.0	 1	 -8.766897	 8.766897;
	195	 197	 0.00035	 0.02375	 0.0	 500.0	 500.0	 500.0	 1.08671	 0.0	 1	 -8.766897	 8.766897;
	208	 209	 0.00051	 0.0275	 0.0	 400.0	 400.0	 400.0	 1.07702	 0.0	 1	 -8.766897	 8.766897;
	213	 211	 0.00084	 0.06858	 0.0	 250.0	 250.0	 250.0	 0.9999	 0.0	 1	 -8.766897	 8.766897;
	216	 218	 0.00033	 0.02711	 0.0	 500.0	 500.0	 500.0	 1.08613	 0.0	 1	 -8.766897	 8.766897;
	220	 218	 0.00032	 0.0464	 0.0	 330.0	 330.0	 330.0	 0.9999	 0.0	 1	 -8.766897	 8.766897;
	227	 225	 0.00113	 0.05647	 0.0	 330.0	 330.0	 330.0	 0.9999	 0.0	 1	 -8.766897	 8.766897;
	224	 226	 0.00075	 0.02469	 -0.008	 330.0	 330.0	 330.0	 1.04544	 0.0	 1	 -8.766897	 8.766897;
	3116	 180	 0.00029	 0.00317	 0.09184	 773.0	 773.0	 773.0	 0.0	 0.0	 1	 -8.766897	 8.766897;
	3116	 181	 0.0003	 0.00326	 0.09536	 771.0	 771.0	 771.0	 0.0	 0.0	 1	 -8.766897	 8.766897;
	240	 82	 0.01475	 0.08595	 0.13036	 315.0	 315.0	 315.0	 0.0	 0.0	 1	 -8.766897	 8.766897;
	3114	 90	 0.01244	 0.06959	 0.10842	 309.0	 309.0	 309.0	 0.0	 0.0	 1	 -8.766897	 8.766897;
	3114	 120	 0.01207	 0.06905	 0.11519	 312.0	 312.0	 312.0	 0.0	 0.0	 1	 -8.766897	 8.766897;
	144	 3115	 0.00168	 0.01603	 0.51488	 724.0	 724.0	 724.0	 0.0	 0.0	 1	 -8.766897	 8.766897;
	3117	 169	 0.0018	 0.01616	 0.0484	 387.0	 387.0	 387.0	 0.0	 0.0	 1	 -8.766897	 8.766897;
	3117	 170	 0.0018	 0.01616	 0.0484	 387.0	 387.0	 387.0	 0.0	 0.0	 1	 -8.766897	 8.766897;
	3118	 61	 0.00223	 0.02209	 0.69011	 737.0	 737.0	 737.0	 0.0	 0.0	 1	 -8.766897	 8.766897;
	3118	 62	 0.00223	 0.02209	 0.69011	 737.0	 737.0	 737.0	 0.0	 0.0	 1	 -8.766897	 8.766897;
	97	 3113	 0.00293	 0.03054	 0.95472	 755.0	 755.0	 755.0	 0.0	 0.0	 1	 -8.766897	 8.766897;
	56	 28	 0.01174	 0.07014	 0.12689	 319.0	 319.0	 319.0	 0.0	 0.0	 1	 -8.766897	 8.766897;
	35	 105	 0.00919	 0.06614	 0.10451	 348.0	 348.0	 348.0	 0.0	 0.0	 1	 -8.766897	 8.766897;
	36	 106	 0.00822	 0.05767	 0.0982	 344.0	 344.0	 344.0	 0.0	 0.0	 1	 -8.766897	 8.766897;
	167	 39	 0.01698	 0.12459	 0.1957	 231.0	 231.0	 231.0	 0.0	 0.0	 1	 -8.766897	 8.766897;
	153	 46	 0.01298	 0.06738	 0.10284	 250.0	 250.0	 250.0	 0.0	 0.0	 1	 -8.766897	 8.766897;
	152	 25	 0.01068	 0.0475	 0.09495	 277.0	 277.0	 277.0	 0.0	 0.0	 1	 -8.766897	 8.766897;
	188	 26	 0.01436	 0.10729	 0.16081	 231.0	 231.0	 231.0	 0.0	 0.0	 1	 -8.766897	 8.766897;
	53	 124	 0.01488	 0.08161	 0.1148	 266.0	 266.0	 266.0	 0.0	 0.0	 1	 -8.766897	 8.766897;
	52	 106	 0.01116	 0.07171	 0.10367	 267.0	 267.0	 267.0	 0.0	 0.0	 1	 -8.766897	 8.766897;
	203	 98	 0.00552	 0.05948	 0.17077	 317.0	 317.0	 317.0	 0.0	 0.0	 1	 -8.766897	 8.766897;
	234	 189	 0.01118	 0.06597	 0.10778	 267.0	 267.0	 267.0	 0.0	 0.0	 1	 -8.766897	 8.766897;
	221	 188	 0.01682	 0.08909	 0.12993	 295.0	 295.0	 295.0	 0.0	 0.0	 1	 -8.766897	 8.766897;
	222	 189	 0.01384	 0.08702	 0.13484	 295.0	 295.0	 295.0	 0.0	 0.0	 1	 -8.766897	 8.766897;
	238	 192	 0.01517	 0.09938	 0.14492	 197.0	 197.0	 197.0	 0.0	 0.0	 1	 -8.766897	 8.766897;
	57	 14	 0.01457	 0.07362	 0.13344	 294.0	 294.0	 294.0	 0.0	 0.0	 1	 -8.766897	 8.766897;
	229	 23	 0.01403	 0.10413	 0.15949	 231.0	 231.0	 231.0	 0.0	 0.0	 1	 -8.766897	 8.766897;
	115	 68	 0.00374	 0.0438	 0.10096	 439.0	 439.0	 439.0	 0.0	 0.0	 1	 -8.766897	 8.766897;
	187	 97	 0.00194	 0.02007	 0.54307	 753.0	 753.0	 753.0	 0.0	 0.0	 1	 -8.766897	 8.766897;
	58	 12	 0.0015	 0.01506	 0.4032	 742.0	 742.0	 742.0	 0.0	 0.0	 1	 -8.766897	 8.766897;
	210	 171	 0.00296	 0.03484	 0.9296	 800.0	 800.0	 800.0	 0.0	 0.0	 1	 -8.766897	 8.766897;
	136	 70	 0.00169	 0.01931	 0.53814	 789.0	 789.0	 789.0	 0.0	 0.0	 1	 -8.766897	 8.766897;
	38	 108	 0.00137	 0.01569	 0.43744	 790.0	 790.0	 790.0	 0.0	 0.0	 1	 -8.766897	 8.766897;
	37	 139	 0.00234	 0.02677	 0.74653	 790.0	 790.0	 790.0	 0.0	 0.0	 1	 -8.766897	 8.766897;
	32	 218	 0.00217	 0.02513	 0.67098	 794.0	 794.0	 794.0	 0.0	 0.0	 1	 -8.766897	 8.766897;
	136	 78	 0.00152	 0.01739	 0.48083	 790.0	 790.0	 790.0	 0.0	 0.0	 1	 -8.766897	 8.766897;
	138	 78	 0.00468	 0.05347	 1.48883	 537.0	 537.0	 537.0	 0.0	 0.0	 1	 -8.766897	 8.766897;
	97	 41	 0.00355	 0.03617	 0.95894	 717.0	 717.0	 717.0	 0.0	 0.0	 1	 -8.766897	 8.766897;
	107	 41	 0.00097	 0.01052	 0.28395	 770.0	 770.0	 770.0	 0.0	 0.0	 1	 -8.766897	 8.766897;
	61	 137	 0.00144	 0.01446	 0.51213	 742.0	 742.0	 742.0	 0.0	 0.0	 1	 -8.766897	 8.766897;
	15	 6	 0.013	 0.09781	 0.14013	 326.0	 326.0	 326.0	 0.0	 0.0	 1	 -8.766897	 8.766897;
	40	 15	 0.00525	 0.03847	 0.06053	 231.0	 231.0	 231.0	 0.0	 0.0	 1	 -8.766897	 8.766897;
	31	 6	 0.00457	 0.03351	 0.05245	 317.0	 317.0	 317.0	 0.0	 0.0	 1	 -8.766897	 8.766897;
	22	 9	 0.01469	 0.10915	 0.16676	 293.0	 293.0	 293.0	 0.0	 0.0	 1	 -8.766897	 8.766897;
	27	 14	 0.01262	 0.09326	 0.14324	 231.0	 231.0	 231.0	 0.0	 0.0	 1	 -8.766897	 8.766897;
	35	 7	 0.00924	 0.05052	 0.07698	 295.0	 295.0	 295.0	 0.0	 0.0	 1	 -8.766897	 8.766897;
	22	 3	 0.01068	 0.07936	 0.12155	 231.0	 231.0	 231.0	 0.0	 0.0	 1	 -8.766897	 8.766897;
	35	 25	 0.00585	 0.04027	 0.07161	 341.0	 341.0	 341.0	 0.0	 0.0	 1	 -8.766897	 8.766897;
	36	 24	 0.00585	 0.04027	 0.07161	 341.0	 341.0	 341.0	 0.0	 0.0	 1	 -8.766897	 8.766897;
	14	 8	 0.00558	 0.04147	 0.0629	 231.0	 231.0	 231.0	 0.0	 0.0	 1	 -8.766897	 8.766897;
	43	 15	 0.00089	 0.0063	 0.0108	 231.0	 231.0	 231.0	 0.0	 0.0	 1	 -8.766897	 8.766897;
	29	 15	 0.00442	 0.02374	 0.04477	 303.0	 303.0	 303.0	 0.0	 0.0	 1	 -8.766897	 8.766897;
	45	 7	 0.00494	 0.0269	 0.04225	 250.0	 250.0	 250.0	 0.0	 0.0	 1	 -8.766897	 8.766897;
	24	 6	 0.00287	 0.01671	 0.02467	 295.0	 295.0	 295.0	 0.0	 0.0	 1	 -8.766897	 8.766897;
	35	 1	 0.0012	 0.0089	 0.01512	 353.0	 353.0	 353.0	 0.0	 0.0	 1	 -8.766897	 8.766897;
...